; Filename: networks/Net1.inp
; WNTR: 0.1.6
; Created: 2019-04-09 13:11:40
[TITLE]
EPANET Example Network 1
A simple example of modeling chlorine decay. Both bulk and
wall reactions are included.

[JUNCTIONS]
;ID                      Elevation       Demand Pattern                 
 10                               710               0                            ;
 11                               710               0                            ;
 12                               700               0                            ;
 13                               695               0                            ;
 21                               700               0                            ;
 22                               695               0                            ;
 23                               690               0                            ;
 31                               700               0                            ;
 32                               710               0                            ;

[RESERVOIRS]
;ID                                   Head                  Pattern
 9                                800                            ;

[TANKS]
;ID                              Elevation           Init Level            Min Level            Max Level             Diameter           Min Volume Volume Curve        
 2                                850             120             100             150            50.5               0                        ;

[PIPES]
;ID                   Node1                Node2                              Length             Diameter            Roughness           Minor Loss               Status
 10                   10                   11                             10530              18             100               0                 Open   ;
 11                   11                   12                              5280              14             100               0                 Open   ;
 12                   12                   13                              5280              10             100               0                 Open   ;
 21                   21                   22                              5280              10             100               0                 Open   ;
 22                   22                   23                              5280              12             100               0                 Open   ;
 31                   31                   32                              5280               6             100               0                 Open   ;
 110                  2                    12                               200              18             100               0                 Open   ;
 111                  11                   21                              5280              10             100               0                 Open   ;
 112                  12                   22                              5280              12             100               0                 Open   ;
 113                  13                   23                              5280               8             100               0                 Open   ;
 121                  21                   31                              5280               8             100               0                 Open   ;
 122                  22                   32                              5280               6             100               0                 Open   ;

[PUMPS]
;ID                   Node1                Node2                Properties          
 9                    9                    10                   HEAD     1                      ;

[VALVES]
;ID                   Node1                Node2                            Diameter Type              Setting           Minor Loss

[TAGS]
;type      name       tag       

[DEMANDS]
;ID        Demand     Pattern   
10         0.0        P_10      
11         150.0      P_11      
12         150.0      P_12      
13         100.0      P_13      
21         150.0      P_21      
22         200.0      P_22      
23         150.0      P_23      
31         100.0      P_31      
32         100.0      P_32      

[STATUS]
;ID        Setting   
[PATTERNS]
;ID        Multipliers

1 1.000000 1.200000 1.400000 1.600000 1.400000 1.200000
1 1.000000 0.800000 0.600000 0.400000 0.600000 0.800000

P_10 0.510617 0.473233 0.396753 0.324751 0.299470 0.287064
P_10 0.298779 0.315776 0.415869 0.444601 0.548890 0.595514
P_10 0.758116 0.812189 0.937650 1.060213 1.204275 1.243747
P_10 1.349911 1.368406 1.370057 1.346331 1.400276 1.373697
P_10 1.152233 1.170843 1.044744 1.009950 0.949528 0.997116
P_10 0.906651 0.947459 0.930283 0.877447 0.844133 0.878141
P_10 0.924206 1.047168 1.089331 1.074155 1.094225 1.099191
P_10 1.129682 0.984080 0.874002 0.893781 0.775941 0.643914
P_10 0.597362 0.533784 0.465989 0.354039 0.311134 0.290096
P_10 0.311078 0.334886 0.386802 0.455005 0.515623 0.614431
P_10 0.695237 0.854619 0.907393 1.029384 1.104824 1.093214
P_10 1.324936 1.325161 1.408241 1.116578 1.199674 1.167161
P_10 1.218676 1.225063 1.069556 1.115365 0.969960 0.898623
P_10 0.898239 0.882563 0.962123 0.984375 0.966867 1.091214
P_10 1.013713 1.088871 1.115959 1.067990 1.142034 1.186683
P_10 1.088076 1.086625 0.978624 0.944324 0.832538 0.683268
P_10 0.529249 0.484846 0.411662 0.341441 0.305382 0.305566
P_10 0.320258 0.336622 0.394573 0.435156 0.546101 0.648010
P_10 0.820928 0.912416 0.930987 1.047760 1.120161 1.232726
P_10 1.291469 1.296855 1.380392 1.168268 1.311104 1.181575
P_10 1.254948 1.204363 1.241355 1.133334 1.147881 0.970857
P_10 0.987483 1.065918 0.995384 1.011276 1.001628 1.037572
P_10 1.049135 1.043998 1.126888 1.179780 1.135324 1.133058
P_10 0.965763 1.047754 0.948290 0.892560 0.759961 0.680738
P_10 0.642938 0.454411 0.437185 0.352038 0.325360 0.312540
P_10 0.287465 0.300981 0.392362 0.437857 0.513248 0.700848
P_10 0.705001 0.930488 1.004591 1.125786 1.049481 1.240839
P_10 1.158303 1.196289 1.331113 1.329963 1.273292 1.167540
P_10 1.154303 0.994069 1.139331 0.992118 1.045901 1.014742
P_10 0.922231 1.075477 0.939027 1.086758 0.933966 1.030110
P_10 1.064496 1.078410 1.132013 1.075552 1.174460 1.104088
P_10 1.080500 0.935086 0.955732 0.951001 0.807321 0.767759
P_10 0.646230 0.510233 0.433744 0.403900 0.350037 0.308655
P_10 0.326416 0.368133 0.416826 0.520989 0.622879 0.781267
P_10 0.946421 0.969524 1.147910 1.202440 1.256212 1.300965
P_10 1.379072 1.485923 1.382598 1.410980 1.485686 1.324426
P_10 1.323743 1.273146 1.212804 1.049224 1.057792 1.036076
P_10 1.056704 0.952262 0.990158 1.105226 0.943671 1.052007
P_10 1.106578 1.231970 1.040655 0.998194 1.069992 1.048671
P_10 1.012028 0.969899 1.003029 0.872447 0.770868 0.765164
P_10 0.684661 0.593816 0.494995 0.424525 0.416310 0.384438
P_10 0.358062 0.347900 0.356827 0.382233 0.450907 0.562616
P_10 0.575407 0.743339 0.754342 0.876248 0.954305 1.102845
P_10 1.138031 1.260705 1.147918 1.135486 1.187150 1.204081
P_10 1.216888 1.085573 1.186795 1.104235 1.056372 1.145713
P_10 1.180587 1.034775 0.943214 1.087642 1.056049 1.074986
P_10 1.059292 1.067637 1.087719 0.982565 0.946525 1.000442
P_10 0.928194 0.843807 0.791264 0.665053 0.641693 0.624544
P_10 0.563995 0.486425 0.461089 0.430696 0.362275 0.347933
P_10 0.359593 0.358536 0.351696 0.350623 0.408929 0.434957
P_10 0.472980 0.539633 0.630810 0.716592 0.790615 0.819546
P_10 0.925773 1.029692 1.050187 1.141397 1.027501 1.138017
P_10 1.080356 1.039017 1.142024 0.970017 0.979547 0.972767
P_10 0.881373 0.940117 0.953766 0.932268 0.999772 0.982649
P_10 1.033210 1.128881 1.019062 0.984151 1.002237 1.083144
P_10 0.941692 0.940251 0.892940 0.825268 0.737340 0.657474
P_10 0.612884 0.479917 0.408494 0.367348 0.315894 0.300358
P_10 0.297027 0.315687 0.360535 0.436795 0.540273 0.640097
P_10 0.695322 0.910544 0.900788 1.111336 1.135362 1.286925
P_10 1.248163 1.391485 1.461884 1.374705 1.501511 1.321351
P_10 1.261801 1.172361 1.132898 1.078353 0.998406 1.041524
P_10 0.809931 0.866941 0.940238 0.858190 0.989917 0.952430
P_10 0.948518 1.105511 1.081916 1.127671 1.113051 1.067075
P_10 0.988097 1.056378 0.953653 0.930400 0.844925 0.692397
P_10 0.627149 0.514362 0.423600 0.337955 0.332318 0.292828
P_10 0.297633 0.329776 0.391075 0.426388 0.507767 0.637929
P_10 0.772298 0.825696 1.017977 1.066128 1.257141 1.122053
P_10 1.251238 1.283841 1.324939 1.312694 1.288711 1.245059
P_10 1.223086 1.147166 1.182031 1.083163 1.077377 0.943717
P_10 0.990252 0.959538 0.942854 0.950050 1.017227 1.026170
P_10 1.026667 1.146884 1.146004 1.259142 1.139847 1.097342
P_10 1.182049 1.107547 1.097425 0.812671 0.766093 0.681035
P_10 0.528380 0.447558 0.392896 0.314446 0.269847 0.286492
P_10 0.288854 0.341390 0.417299 0.499748 0.570010 0.662581
P_10 0.835222 0.877245 0.948680 1.095396 1.099713 1.241796
P_10 1.251683 1.354808 1.347641 1.183698 1.268669 1.290286
P_10 1.226119 1.233963 1.161270 1.069148 1.029441 0.955861
P_10 1.050009 1.016409 1.103617 1.084500 1.031474 1.038636
P_10 1.089555 1.073855 1.058995 1.065297 1.174341 1.015420
P_10 1.145148 1.041661 0.965963 0.895631 0.797899 0.744660
P_10 0.621826 0.525335 0.438091 0.332647 0.279225 0.325723
P_10 0.316353 0.341623 0.392420 0.412837 0.564020 0.663308
P_10 0.729380 0.878521 0.967084 1.092294 1.140869 1.234236
P_10 1.261059 1.388630 1.288851 1.283639 1.280556 1.112700
P_10 1.137000 1.038373 1.020443 1.054374 1.046412 0.964788
P_10 0.999456 0.955223 0.941990 1.000390 1.102437 0.915552
P_10 1.118542 0.982561 1.134619 1.156431 1.098411 0.993667
P_10 1.089264 1.005321 0.915671 0.980277 0.817200 0.771068
P_10 0.623553 0.547222 0.467760 0.364120 0.364331 0.331089
P_10 0.334255 0.361865 0.420590 0.527593 0.626787 0.714761
P_10 0.882811 1.017510 1.099234 1.234597 1.244624 1.367595
P_10 1.478084 1.480866 1.494449 1.438043 1.384061 1.273819
P_10 1.341773 1.202295 1.193988 1.130510 1.106384 1.073475
P_10 1.067631 1.086740 1.093879 1.058173 1.118605 1.112458
P_10 1.141934 1.057857 1.170650 1.040751 1.106564 1.020555
P_10 1.014234 0.988721 0.962693 0.787919 0.774633 0.742424
P_10 0.694268 0.581323 0.543275 0.471166 0.424362 0.370794
P_10 0.333722 0.346333 0.380045 0.393438 0.436739 0.577579
P_10 0.661034 0.701562 0.844639 0.918930 0.949242 1.045756
P_10 1.105888 1.267902 1.251918 1.149935 1.245139 1.269958
P_10 1.273274 1.299283 1.150489 1.054284 1.104324 1.144185
P_10 1.033515 1.058627 1.124590 1.120443 1.159584 1.172151
P_10 1.127791 1.106259 1.069618 1.017469 1.046424 0.882780
P_10 0.927264 0.907758 0.833880 0.772358 0.675170 0.635372
P_10 0.571516 0.509303 0.484995 0.424708 0.393979 0.361680
P_10 0.364321 0.328999 0.360221 0.356386 0.389285 0.435993
P_10 0.493530 0.502338 0.668625 0.674860 0.753208 0.843445
P_10 0.962790 0.930907 1.111449 0.973830 1.089391 1.163899
P_10 1.194635 1.177677 1.047152 0.962720 1.212750 0.990015
P_10 1.057751 0.941355 0.911412 0.982555 1.055033 0.951830
P_10 0.945762 1.016103 1.094906 1.124849 1.139212 1.008790
P_10 0.955607 0.962779 0.907965 0.875307 0.694975 0.687000
P_10 0.547562 0.462007 0.432007 0.356691 0.319279 0.274393
P_10 0.323782 0.358446 0.395201 0.430566 0.536809 0.627446
P_10 0.731100 0.793916 1.006725 1.097884 1.153329 1.303231
P_10 1.428362 1.406689 1.403041 1.427928 1.382935 1.224709
P_10 1.356610 1.172026 1.168618 1.047435 1.007622 0.931762
P_10 0.940149 0.918996 0.977550 0.887936 1.090085 1.102891
P_10 0.991472 1.067021 1.121903 1.197472 1.267209 1.129119
P_10 1.222380 0.981153 1.012253 0.864359 0.801156 0.760448
P_10 0.598635 0.499085 0.425961 0.354561 0.329082 0.340124
P_10 0.311817 0.357394 0.387610 0.447795 0.544178 0.638988
P_10 0.712558 0.822775 0.937298 1.038903 1.148666 1.233691
P_10 1.202691 1.358755 1.451100 1.326460 1.300917 1.359553
P_10 1.232343 1.179863 1.076581 1.113399 1.020526 0.963942
P_10 1.022396 0.935830 0.966739 1.019885 1.008145 1.023387
P_10 1.054813 1.166533 1.223414 1.133420 1.157971 1.163860
P_10 1.105339 1.032880 0.996008 0.934011 0.836667 0.687782
P_10 0.552034 0.521149 0.415007 0.336448 0.319484 0.275586
P_10 0.284664 0.358221 0.386766 0.521353 0.597083 0.726158
P_10 0.791251 0.849341 0.993417 1.067600 1.090932 1.231723
P_10 1.278796 1.311602 1.250846 1.406763 1.392075 1.344142
P_10 1.320171 1.173990 1.224806 1.109208 1.088252 1.063445
P_10 1.036097 1.018137 1.038623 0.940088 1.065493 1.073641
P_10 1.066183 1.118989 1.072431 1.163891 1.073183 1.189705
P_10 1.084936 0.966633 1.076949 0.930497 0.771093 0.723192
P_10 0.593707 0.529754 0.418851 0.350015 0.321525 0.298423
P_10 0.342054 0.340854 0.397449 0.476141 0.634639 0.664150
P_10 0.800715 0.975761 1.046081 1.082776 1.215797 1.251500
P_10 1.285875 1.285684 1.262543 1.191950 1.227980 1.163541
P_10 1.154423 1.087947 1.111728 1.006022 0.959755 1.052075
P_10 0.994068 0.982691 1.013278 1.008394 1.003874 1.017853
P_10 1.211102 1.100320 1.116672 1.091346 1.173454 1.143074
P_10 1.078788 0.992863 0.975461 0.968410 0.848809 0.766926
P_10 0.641586 0.558212 0.451277 0.410633 0.341466 0.328958
P_10 0.343187 0.362953 0.425392 0.488759 0.626823 0.809637
P_10 0.858308 1.052606 1.093360 1.304167 1.270335 1.536777
P_10 1.527043 1.512146 1.582045 1.580726 1.441515 1.396766
P_10 1.461388 1.486210 1.186187 1.121169 1.166423 1.123797
P_10 1.107664 1.070980 1.010385 1.104747 1.165994 1.060281
P_10 1.098349 1.066280 1.093263 1.128496 1.133856 1.052211
P_10 1.091332 1.022503 0.896847 0.920228 0.862200 0.731014
P_10 0.672457 0.594322 0.568022 0.487079 0.467698 0.349958
P_10 0.360157 0.388489 0.358324 0.410856 0.417799 0.591896
P_10 0.668312 0.786538 0.846475 1.040785 0.991502 1.015131
P_10 1.272067 1.151829 1.190605 1.312129 1.276437 1.367535
P_10 1.315135 1.256398 1.232466 1.174927 1.126420 1.074224
P_10 0.955337 1.079776 1.102537 1.189080 1.092064 1.224782
P_10 1.198145 1.007373 1.081714 1.114526 0.986210 0.930436
P_10 0.948201 0.949547 0.801129 0.772572 0.703626 0.638330
P_10 0.591097 0.528319 0.474251 0.445081 0.404551 0.377211
P_10 0.334545 0.353172 0.357110 0.399202 0.417213 0.413259
P_10 0.527463 0.601035 0.651232 0.753798 0.816500 0.872235
P_10 0.925663 0.973753 1.012897 1.082041 1.236786 1.066358
P_10 1.111824 1.172137 1.140883 1.084976 1.122832 0.879279
P_10 0.958968 0.961793 1.002105 0.961180 1.011367 0.987638
P_10 1.108807 1.079762 1.075871 1.063380 1.075627 1.053144
P_10 0.989711 0.996973 0.909757 0.805844 0.825747 0.621771
P_10 0.534843 0.459669 0.411767 0.365928 0.319734 0.312870
P_10 0.308322 0.328366 0.391506 0.475813 0.590878 0.638618
P_10 0.756194 0.853521 1.074255 1.128221 1.150643 1.285236
P_10 1.381745 1.496119 1.469905 1.385682 1.493332 1.345752
P_10 1.384494 1.258530 1.165911 1.074686 1.073090 0.922646
P_10 0.967043 0.926640 0.824792 0.975515 1.023693 1.014310
P_10 1.063184 1.152154 1.107798 1.221913 1.110814 1.085669
P_10 1.219208 1.086418 0.969110 0.953757 0.800271 0.845784
P_10 0.656131 0.544972 0.482820 0.371395 0.343055 0.328726
P_10 0.296911 0.379555 0.410744 0.456262 0.525994 0.632252
P_10 0.836197 0.916137 0.988527 1.133859 1.195673 1.388110
P_10 1.347282 1.363380 1.449929 1.443844 1.445696 1.448322
P_10 1.201839 1.135146 1.062363 1.171600 0.998413 0.998165
P_10 1.011169 0.921194 0.956860 0.931749 0.982346 1.033946
P_10 1.108277 1.193407 1.157860 1.252707 1.145422 1.178319
P_10 1.162119 1.086103 0.982177 0.893070 0.818988 0.705473
P_10 0.529844 0.514492 0.448545 0.342154 0.297217 0.286409
P_10 0.315580 0.392152 0.383564 0.528148 0.583717 0.645907
P_10 0.764596 0.924692 1.027689 1.114674 1.249238 1.330057
P_10 1.324533 1.255750 1.334495 1.351450 1.205627 1.264491
P_10 1.250715 1.152293 1.055116 1.226158 1.174921 1.094534
P_10 1.013075 1.002086 0.990328 1.012596 1.121197 1.043354
P_10 1.086085 1.137020 1.116815 1.164763 1.143183 1.134684
P_10 1.140690 1.109207 0.945177 0.922824 0.793896 0.641980
P_10 0.575073 0.470731 0.444149 0.372124 0.326175 0.288528
P_10 0.295664 0.315535 0.418565 0.504594 0.591254 0.664320
P_10 0.839223 0.879650 1.044203 1.077469 1.238925 1.263154
P_10 1.280649 1.239409 1.222727 1.304965 1.254547 1.328382
P_10 1.270304 1.116551 1.070842 1.114018 1.083279 1.056736
P_10 1.076482 1.109099 1.028734 1.124960 1.080092 1.172872
P_10 1.123183 1.141921 1.167670 1.156010 1.170121 1.139682
P_10 1.087188 1.082941 1.213542 0.975043 0.828186 0.758034
P_10 0.647057 0.591351 0.451057 0.391432 0.367739 0.340763
P_10 0.369331 0.382898 0.413950 0.529019 0.648821 0.794084
P_10 0.957893 1.059162 1.088809 1.323417 1.390502 1.394895
P_10 1.585616 1.680049 1.483234 1.678087 1.444690 1.369679
P_10 1.311203 1.345651 1.161821 1.172563 1.231855 1.132171
P_10 1.107927 1.076315 0.963253 1.045126 1.124776 1.198276
P_10 1.063367 1.160376 1.156269 1.133152 1.034728 1.122505
P_10 0.952194 1.135663 0.996554 0.859812 0.789969 0.801164
P_10 0.699296 0.615450 0.544765 0.512661 0.399968 0.392784
P_10 0.392676 0.369404 0.403879 0.457448 0.493788 0.561555
P_10 0.652431 0.785308 0.817287 0.955580 1.064312 1.121131
P_10 1.196838 1.300741 1.178586 1.227316 1.214215 1.312971
P_10 1.250162 1.265927 1.201237 1.282007 1.186610 1.187414
P_10 1.083346 1.155007 1.030115 1.201650 1.192684 1.173138
P_10 1.088851 1.054723 1.087867 1.084785 1.172209 1.015744
P_10 0.837526 0.948070 0.840783 0.749726 0.763475 0.622599
P_10 0.595665 0.532175 0.458978 0.421346 0.422077 0.411520
P_10 0.381516 0.384875 0.372134 0.387763 0.440415 0.460453
P_10 0.583056 0.590920 0.665015 0.692735 0.823193 0.912267
P_10 0.991988 1.091227 1.191878 1.167466 1.232038 1.241785
P_10 1.183388 1.228399 0.986610 1.101284 1.024130 0.993899
P_10 1.005574 1.093093 1.013901 0.900890 0.996546 1.049509
P_10 1.080439 1.067339 1.125024 1.099896 1.245538 1.114023
P_10 1.086715 1.044667 1.040178 0.858676 0.728846 0.710705
P_10 0.592764 0.535987 0.410301 0.375033 0.303857 0.328411
P_10 0.304838 0.332035 0.382731 0.494852 0.585591 0.648511
P_10 0.801136 0.887691 1.041658 1.208441 1.242628 1.352274
P_10 1.318773 1.466101 1.509016 1.477848 1.555014 1.449314
P_10 1.320794 1.217076 1.133738 1.117908 1.065588 1.014029
P_10 0.978579 0.906285 1.013216 1.002899 0.839469 0.921661
P_10 1.119133 1.260548 1.228189 1.147034 1.206965 1.236090
P_10 1.193383 1.128236 1.057070 0.929340 0.782180 0.702095
P_10 0.628062 0.560008 0.454852 0.401349 0.309609 0.340048
P_10 0.301557 0.381400 0.408574 0.457327 0.593175 0.646526
P_10 0.788436 0.963073 1.014873 1.069938 1.156623 1.302898
P_10 1.152360 1.382682 1.528958 1.487318 1.340329 1.316516
P_10 1.315364 1.252127 1.266495 1.100052 1.003496 1.077330
P_10 1.077807 1.087844 0.954437 1.045139 1.060026 1.130187
P_10 1.087512 1.150330 1.194899 1.154463 1.213283 1.232536
P_10 1.145979 1.160270 1.004508 0.912974 0.855746 0.759964
P_10 0.603139 0.483461 0.422716 0.376728 0.310988 0.323098
P_10 0.347714 0.368949 0.424274 0.547348 0.634746 0.690854
P_10 0.786209 0.980489 1.073407 1.129889 1.265752 1.253494
P_10 1.373452 1.441259 1.477792 1.419758 1.386429 1.449471
P_10 1.265638 1.271099 1.245716 1.278729 1.051355 1.127179
P_10 1.019229 1.003453 1.053383 0.995420 1.035756 1.070635
P_10 1.239282 1.118052 1.161024 1.281049 1.105417 1.124575
P_10 1.185798 1.115785 1.072871 1.004314 0.855740 0.695527
P_10 0.591770 0.550699 0.479409 0.354426 0.378667 0.290158
P_10 0.308511 0.374658 0.417039 0.511743 0.562872 0.695921
P_10 0.824856 1.016402 0.993717 1.103402 1.269257 1.254884
P_10 1.287084 1.506085 1.307836 1.258621 1.285593 1.290139
P_10 1.248220 1.305366 1.119708 1.149723 1.067644 1.098511
P_10 1.057148 1.192877 1.105215 1.136633 1.199620 1.145175
P_10 1.179933 1.172593 1.132860 1.230586 1.159659 1.254626
P_10 1.193537 1.045315 0.949867 0.907876 0.843348 0.759779
P_10 0.673139 0.545862 0.516304 0.415285 0.338323 0.350686
P_10 0.353746 0.414594 0.454734 0.578492 0.640013 0.787807
P_10 0.905103 1.036503 1.204832 1.343930 1.369180 1.519873
P_10 1.591177 1.481202 1.688547 1.540046 1.425529 1.401704
P_10 1.335187 1.319640 1.213253 1.138631 1.058636 1.167445
P_10 1.085319 1.199010 1.135477 1.120806 1.164612 1.230804
P_10 1.245030 1.232023 1.169190 1.199644 1.138239 1.201419
P_10 1.106158 1.031237 0.939141 0.966879 0.861153 0.750967
P_10 0.658091 0.619149 0.588044 0.440191 0.388199 0.421467
P_10 0.337245 0.351680 0.374743 0.418888 0.471558 0.594307
P_10 0.718545 0.731473 0.923493 0.937746 0.975171 1.070243
P_10 1.262792 1.238000 1.378529 1.336992 1.234508 1.295123
P_10 1.253584 1.211137 1.305230 1.205805 1.195516 1.204818
P_10 1.227804 1.195411 1.157401 1.222423 1.117547 1.107396
P_10 1.162141 1.115620 1.141019 1.133044 1.093882 1.079621
P_10 0.908230 0.909557 0.826540 0.786520 0.758474 0.700354
P_10 0.614842 0.516028 0.511646 0.446983 0.443744 0.385155
P_10 0.335342 0.355990 0.369587 0.401759 0.412838 0.466692
P_10 0.556971 0.632925 0.742265 0.747953 0.845443 0.873847
P_10 1.065474 1.018801 1.261797 1.130800 1.131803 1.205105
P_10 1.203301 1.212584 1.106759 1.024960 1.037570 1.032779
P_10 1.052344 1.083108 0.952642 1.078624 0.966310 1.032633
P_10 1.136507 1.109978 1.168946 1.159135 1.107793 1.101119
P_10 1.146576 1.047085 0.879030 0.887380 0.770158 0.702307
P_10 0.585534 0.512845 0.414266 0.357196 0.351192 0.291853
P_10 0.297206 0.341263 0.404557 0.476741 0.604574 0.588340
P_10 0.766704 0.951016 0.942071 1.208106 1.152987 1.313905
P_10 1.411883 1.588555 1.403878 1.437458 1.440085 1.424705
P_10 1.372952 1.365191 1.264203 1.172306 1.057957 1.025133
P_10 1.012901 1.024323 0.927777 1.035936 1.042049 1.145913
P_10 1.111053 1.133550 1.184754 1.191890 1.212780 1.269949
P_10 1.138794 1.095886 0.975736 0.897351 0.857070 0.725263
P_10 0.605502 0.576302 0.458829 0.420494 0.348256 0.345664
P_10 0.338960 0.378862 0.433926 0.453779 0.506350 0.696069
P_10 0.832122 0.947147 1.084691 1.165445 1.242752 1.255426
P_10 1.356182 1.455124 1.612556 1.414386 1.330500 1.375275
P_10 1.197157 1.284411 1.177805 1.163879 1.062464 1.044927
P_10 1.192707 0.981952 1.081239 1.022103 1.083841 1.128175
P_10 1.105942 1.282573 1.229703 1.477979 1.197332 1.323231
P_10 1.099058 1.011747 1.085122 0.948197 0.867348 0.763527
P_10 0.643880 0.548965 0.415316 0.370740 0.340767 0.316092
P_10 0.307188 0.349119 0.434575 0.488270 0.635248 0.705600
P_10 0.808340 0.971517 1.040067 1.238619 1.346354 1.429264
P_10 1.472603 1.306179 1.445998 1.324389 1.390254 1.454198
P_10 1.343702 1.273796 1.317483 1.186010 1.158837 1.125887
P_10 0.988669 1.039106 1.174583 1.144386 1.194494 1.081354
P_10 1.191175 1.230328 1.270593 1.297492 1.217086 1.242300
P_10 1.149325 1.110483 1.062796 0.938712 0.793066 0.725633
P_10 0.632810 0.541327 0.458132 0.372950 0.329456 0.307465
P_10 0.335786 0.385514 0.402070 0.530877 0.610058 0.689261
P_10 0.796596 1.075578 1.096608 1.199497 1.369249 1.373703
P_10 1.434415 1.416559 1.360909 1.305267 1.349629 1.291526
P_10 1.343333 1.136721 1.238702 1.046691 1.115718 0.994467
P_10 1.069490 1.150704 1.084033 1.152941 1.116655 1.070724
P_10 1.218947 1.099438 1.286158 1.138139 1.301640 1.204110
P_10 1.059927 1.070026 0.984972 0.922602 0.905445 0.792125
P_10 0.727776 0.591189 0.485040 0.456128 0.350873 0.383802
P_10 0.347915 0.405447 0.460942 0.555892 0.697329 0.898495
P_10 0.977471 1.067440 1.192491 1.319968 1.395975 1.637848
P_10 1.530280 1.756420 1.564668 1.609579 1.507787 1.455916
P_10 1.334544 1.413602 1.330484 1.160613 1.267486 1.236954
P_10 1.141729 1.095360 1.192563 1.135424 1.188814 1.293364
P_10 1.183674 1.173866 1.363694 1.212175 1.195652 1.159926
P_10 1.157333 1.104917 1.001128 0.948994 0.798813 0.774747
P_10 0.665363 0.617799 0.541144 0.480175 0.452676 0.431256
P_10 0.362490 0.386473 0.382636 0.424279 0.489392 0.549102
P_10 0.643251 0.726515 0.903807 0.978206 0.997224 1.150422
P_10 1.191792 1.274747 1.331326 1.377732 1.466685 1.248319
P_10 1.279120 1.269222 1.156560 1.319113 1.252366 1.263718
P_10 1.233604 1.136205 1.107323 1.219065 1.100627 1.272079
P_10 1.197360 1.183652 1.059126 1.202929 1.130961 1.102006
P_10 1.020668 1.022651 0.942404 0.826550 0.749641 0.725799
P_10 0.606502 0.538815 0.556395 0.489033 0.394524 0.447701
P_10 0.380206 0.386183 0.404498 0.392959 0.472376 0.460502
P_10 0.550706 0.631128 0.662601 0.819963 0.854972 0.908577
P_10 1.067432 1.030721 1.123596 1.238778 1.144669 1.218653
P_10 1.227184 1.079358 1.179842 1.026267 1.058076 1.206284
P_10 1.119194 1.037982 0.973846 1.035711 1.125862 1.065242
P_10 1.095533 1.114000 1.115429 1.186620 1.161553 1.205145
P_10 1.018003 0.957884 0.898809 0.893798 0.840464 0.710752
P_10 0.587450 0.526969 0.471301 0.393185 0.357377 0.304327
P_10 0.335883 0.340088 0.443218 0.471651 0.559422 0.729389
P_10 0.742124 0.890195 1.047653 1.165420 1.320097 1.409121
P_10 1.590217 1.639927 1.513480 1.449906 1.441956 1.565853
P_10 1.437921 1.375701 1.215066 1.235387 1.221716 1.019507
P_10 0.918835 0.953560 0.915725 1.025768 1.060592 1.033634
P_10 1.203269 1.118588 1.225058 1.292199 1.283613 1.253049
P_10 1.201819 1.107468 1.104638 0.996239 0.884478 0.782161
P_10 0.662500 0.616521 0.478847 0.371690 0.392307 0.328459
P_10 0.362236 0.338851 0.457984 0.456891 0.582297 0.682592
P_10 0.851769 0.949786 1.118969 1.120225 1.256534 1.387954
P_10 1.377967 1.418779 1.479115 1.441990 1.497660 1.335893
P_10 1.331993 1.281468 1.305034 1.167777 1.112573 1.073704
P_10 0.997129 1.079899 1.027892 0.947082 1.164606 1.101032
P_10 1.083462 1.156503 1.285717 1.202755 1.284594 1.262560
P_10 1.267033 1.123302 1.210341 0.992151 0.810112 0.746973
P_10 0.670353 0.585315 0.426348 0.370146 0.332230 0.316524
P_10 0.353404 0.355467 0.406204 0.475917 0.596299 0.731258
P_10 0.822211 0.881190 1.217983 1.110013 1.328511 1.252713
P_10 1.330966 1.466872 1.499786 1.400668 1.443229 1.354002
P_10 1.293337 1.363303 1.262440 1.097535 1.186634 1.137192
P_10 1.165253 1.052556 1.190430 1.047503 1.160947 1.100572
P_10 1.145666 1.217003 1.186932 1.257238 1.138514 1.126812
P_10 1.278809 1.118887 1.086950 0.943520 0.846533 0.744765
P_10 0.628330 0.610388 0.446976 0.419426 0.351145 0.324484
P_10 0.350927 0.349938 0.463856 0.489500 0.635326 0.736652
P_10 0.851943 0.937353 1.058076 1.147420 1.273253 1.359115
P_10 1.237683 1.459309 1.412896 1.467032 1.412103 1.278564
P_10 1.371499 1.202024 1.119475 1.131063 1.078442 1.125132
P_10 1.016767 1.111341 1.086854 1.099801 1.160778 1.169871
P_10 1.149659 1.129160 1.277471 1.183944 1.218436 1.195406
P_10 1.149612 1.103931 1.088001 0.944739 0.914718 0.873577
P_10 0.668937 0.634684 0.513333 0.459738 0.371063 0.332856
P_10 0.383055 0.407780 0.494474 0.617413 0.662461 0.904149
P_10 0.981915 1.108911 1.230862 1.308260 1.430833 1.534456
P_10 1.436899 1.756595 1.636744 1.550440 1.583963 1.587451
P_10 1.482858 1.476099 1.369401 1.239206 1.348191 1.126247
P_10 1.258455 1.200519 1.105276 1.183391 1.191837 1.279813
P_10 1.167408 1.320414 1.078303 1.317582 1.188796 1.212235
P_10 1.036940 0.917518 1.046506 1.025077 0.930745 0.861286
P_10 0.603323 0.617425 0.561894 0.537000 0.522902 0.431689
P_10 0.422737 0.415229 0.387469 0.488804 0.527720 0.551576
P_10 0.702377 0.811693 0.886229 0.946370 1.165679 1.204556
P_10 1.173454 1.241228 1.444941 1.415427 1.530234 1.373403
P_10 1.326664 1.245599 1.175818 1.243044 1.202505 1.196898
P_10 1.117493 1.224859 1.227638 1.101888 1.123015 1.143117
P_10 1.091245 1.255523 1.154005 1.274781 1.143888 1.035394
P_10 0.988545 0.907829 0.941283 0.758625 0.801961 0.704058
P_10 0.579782 0.574181 0.503144 0.437001 0.450505 0.364672
P_10 0.397440 0.369234 0.416504 0.386198 0.430674 0.508483
P_10 0.543315 0.651861 0.696541 0.813733 0.884393 1.003777
P_10 1.046465 1.087527 1.264703 1.329880 1.304948 1.257924
P_10 1.222446 1.253039 1.299850 1.217581 1.079388 1.057403
P_10 1.019152 1.012108 1.102322 1.100079 1.166611 1.129896
P_10 1.137967 1.190381 1.126613 1.153542 1.195095 1.177692
P_10 1.141710 1.168034 0.950752 0.946378 0.837065 0.731809
P_10 0.625435 0.570370 0.419982 0.356011 0.331463 0.320985
P_10 0.326783 0.365829 0.417582 0.517854 0.631894 0.731933
P_10 0.840187 0.920788 1.099681 1.224009 1.365085 1.360977
P_10 1.390456 1.547464 1.399922 1.570590 1.570867 1.465697
P_10 1.425780 1.373176 1.243259 1.141386 1.135409 1.130073
P_10 1.039943 0.922117 1.047444 0.984648 1.000606 1.100288
P_10 1.265242 1.219685 1.231827 1.249096 1.296272 1.276434
P_10 1.283427 1.227159 1.109855 0.958492 0.918743 0.811169
P_10 0.690254 0.608020 0.497766 0.417421 0.403679 0.340043
P_10 0.339268 0.380777 0.462589 0.502623 0.630528 0.610889
P_10 0.816474 0.960416 1.050192 1.243992 1.299491 1.367979
P_10 1.260231 1.413989 1.549481 1.510865 1.499416 1.399189
P_10 1.398802 1.302535 1.186591 1.283572 1.218785 1.141005
P_10 1.035162 1.064683 1.118160 1.076558 1.124981 1.293038
P_10 1.189622 1.190027 1.272964 1.454156 1.292680 1.278611
P_10 1.231897 1.117083 1.207969 0.986767 0.919829 0.814984
P_10 0.627448 0.477967 0.461162 0.387465 0.328887 0.337836
P_10 0.342177 0.371630 0.419783 0.534445 0.662827 0.858088
P_10 0.943386 1.068217 0.949354 1.267952 1.319272 1.476746
P_10 1.445180 1.439583 1.458407 1.481157 1.481003 1.486388
P_10 1.507192 1.303496 1.363943 1.396710 1.171658 1.166952
P_10 1.176578 1.141179 1.128508 1.245578 1.088031 1.202605
P_10 1.243251 1.249147 1.223099 1.270954 1.240875 1.201545
P_10 1.213518 1.087419 1.041931 1.007993 0.884738 0.774770
P_10 0.664399 0.593875 0.464152 0.432028 0.369062 0.340420
P_10 0.362783 0.375784 0.438457 0.570287 0.625807 0.689959
P_10 0.837125 1.030660 1.104395 1.201971 1.343542 1.489699
P_10 1.429150 1.366470 1.523231 1.457426 1.444535 1.251582
P_10 1.358770 1.341929 1.164128 1.225179 1.106142 1.204515
P_10 1.105633 1.030432 1.153851 1.191618 1.235896 1.247568
P_10 1.268448 1.258789 1.240801 1.291120 1.357384 1.265098
P_10 1.017641 1.218782 1.021930 0.969844 0.883975 0.944620
P_10 0.752939 0.588885 0.500621 0.449150 0.386254 0.375097
P_10 0.385909 0.415789 0.453260 0.631598 0.700324 0.968646
P_10 0.994274 1.202463 1.180943 1.445853 1.544214 1.571113
P_10 1.812777 1.535609 1.596961 1.596479 1.625141 1.656967
P_10 1.342278 1.360418 1.462781 1.333331 1.140980 1.319045
P_10 1.196574 1.136401 1.221536 1.166248 1.163825 1.104041
P_10 1.281515 1.364833 1.175917 1.260226 1.130497 1.328080
P_10 1.183293 1.080190 0.993065 1.019968 0.904534 0.786909
P_10 0.714977 0.657435 0.633958 0.518348 0.494631 0.370713