; Filename: networks/Net1.inp
; WNTR: 0.1.6
; Created: 2019-04-09 13:10:13
[TITLE]
EPANET Example Network 1
A simple example of modeling chlorine decay. Both bulk and
wall reactions are included.

[JUNCTIONS]
;ID                      Elevation       Demand Pattern                 
 10                               710               0                            ;
 11                               710               0                            ;
 12                               700               0                            ;
 13                               695               0                            ;
 21                               700               0                            ;
 22                               695               0                            ;
 23                               690               0                            ;
 31                               700               0                            ;
 32                               710               0                            ;

[RESERVOIRS]
;ID                                   Head                  Pattern
 9                                800                            ;

[TANKS]
;ID                              Elevation           Init Level            Min Level            Max Level             Diameter           Min Volume Volume Curve        
 2                                850             120             100             150            50.5               0                        ;

[PIPES]
;ID                   Node1                Node2                              Length             Diameter            Roughness           Minor Loss               Status
 10                   10                   11                             10530              18             100               0                 Open   ;
 11                   11                   12                              5280              14             100               0                 Open   ;
 12                   12                   13                              5280              10             100               0                 Open   ;
 21                   21                   22                              5280              10             100               0                 Open   ;
 22                   22                   23                              5280              12             100               0                 Open   ;
 31                   31                   32                              5280               6             100               0                 Open   ;
 110                  2                    12                               200              18             100               0                 Open   ;
 111                  11                   21                              5280              10             100               0                 Open   ;
 112                  12                   22                              5280              12             100               0                 Open   ;
 113                  13                   23                              5280               8             100               0                 Open   ;
 121                  21                   31                              5280               8             100               0                 Open   ;
 122                  22                   32                              5280               6             100               0                 Open   ;

[PUMPS]
;ID                   Node1                Node2                Properties          
 9                    9                    10                   HEAD     1                      ;

[VALVES]
;ID                   Node1                Node2                            Diameter Type              Setting           Minor Loss

[TAGS]
;type      name       tag       

[DEMANDS]
;ID        Demand     Pattern   
10         0.0        P_10      
11         150.0      P_11      
12         150.0      P_12      
13         100.0      P_13      
21         150.0      P_21      
22         200.0      P_22      
23         150.0      P_23      
31         100.0      P_31      
32         100.0      P_32      

[STATUS]
;ID        Setting   
[PATTERNS]
;ID        Multipliers

1 1.000000 1.200000 1.400000 1.600000 1.400000 1.200000
1 1.000000 0.800000 0.600000 0.400000 0.600000 0.800000

P_10 0.549904 0.537978 0.439686 0.433893 0.357988 0.355603
P_10 0.336369 0.374541 0.404923 0.485345 0.610345 0.676953
P_10 0.766446 0.798613 0.992974 1.132767 1.127276 1.270399
P_10 1.192817 1.222423 1.363272 1.170866 1.306967 1.184345
P_10 1.186854 1.170832 1.189065 1.014470 0.893917 0.907467
P_10 0.813795 0.874818 0.827038 0.905726 0.936070 0.910409
P_10 0.963374 1.031506 1.136758 1.132262 1.210622 1.188255
P_10 1.169761 1.032192 1.025523 0.908965 0.810037 0.718837
P_10 0.597497 0.587110 0.488095 0.401617 0.381756 0.367801
P_10 0.360295 0.363424 0.451290 0.481607 0.588174 0.642944
P_10 0.785046 0.892016 0.962699 1.056090 1.177777 1.200149
P_10 1.112723 1.246591 1.308246 1.213853 1.287569 1.223415
P_10 1.171467 1.162786 0.981149 0.972800 0.957467 0.931075
P_10 0.892782 0.987560 0.924061 0.934615 1.008477 1.004768
P_10 1.103317 0.993850 1.162042 1.181481 1.093982 1.213007
P_10 1.082311 0.956426 0.974515 0.956856 0.847832 0.730699
P_10 0.623614 0.536895 0.490218 0.408503 0.343550 0.367854
P_10 0.380485 0.395312 0.496772 0.510302 0.589007 0.696596
P_10 0.785353 0.955925 1.007590 1.092382 1.145605 1.207518
P_10 1.292784 1.215591 1.178792 1.248060 1.215847 1.125257
P_10 1.230388 1.061516 0.967608 1.135517 0.986018 0.988488
P_10 0.900075 0.924614 0.998059 1.071923 0.987087 1.061211
P_10 1.027051 1.048509 1.065715 1.057907 1.163007 1.074543
P_10 1.029536 1.030238 1.005051 0.868732 0.874981 0.720778
P_10 0.684877 0.551456 0.567946 0.452770 0.409470 0.368883
P_10 0.406002 0.414513 0.477514 0.526116 0.567232 0.781790
P_10 0.753650 0.855903 1.052692 1.043070 1.174804 1.243143
P_10 1.219322 1.137631 1.253131 1.275406 1.143559 1.184834
P_10 1.094990 1.102362 0.931281 0.994463 1.044950 0.911667
P_10 0.933596 0.919016 0.953668 1.009948 1.056323 1.041737
P_10 1.003315 1.107106 1.128960 1.165638 1.134450 1.121772
P_10 1.164356 0.959604 0.935019 0.943403 0.913420 0.780339
P_10 0.607902 0.608605 0.520741 0.485550 0.421677 0.424343
P_10 0.398632 0.445203 0.489540 0.583072 0.640956 0.754975
P_10 0.977256 0.995044 1.212992 1.109661 1.237165 1.431716
P_10 1.441840 1.345678 1.453722 1.307260 1.451480 1.291809
P_10 1.296706 1.216407 1.131662 1.029781 1.108057 0.962097
P_10 0.999257 0.986211 0.993073 1.146747 1.131052 1.006259
P_10 1.096972 1.083578 1.113092 1.073747 1.086924 1.075303
P_10 1.055432 1.002554 1.040850 0.914914 0.789553 0.711986
P_10 0.781828 0.654128 0.553610 0.520456 0.498418 0.415394
P_10 0.436129 0.384072 0.430520 0.457595 0.512741 0.559530
P_10 0.644929 0.699824 0.833622 0.911237 0.922639 0.938845
P_10 1.047607 1.182181 1.113036 1.132339 1.207450 1.163862
P_10 1.150928 1.070012 1.105802 1.109819 1.076348 1.110109
P_10 1.108990 1.045206 1.099008 1.110702 1.054280 1.096485
P_10 1.095526 1.111757 1.008392 1.017819 0.994250 0.909764
P_10 0.939360 0.764699 0.871093 0.842766 0.773178 0.683855
P_10 0.590604 0.600776 0.536624 0.470337 0.433352 0.466561
P_10 0.386971 0.404028 0.418281 0.392856 0.418993 0.469046
P_10 0.516594 0.531145 0.593882 0.761864 0.857890 0.895370
P_10 0.960601 0.976681 0.960845 1.014664 1.100457 1.096516
P_10 1.011055 1.049082 1.010917 1.059086 0.939940 0.965322
P_10 0.915979 0.889780 0.947082 0.849648 0.958593 0.933045
P_10 1.032227 0.952472 0.977635 0.988648 1.147070 1.037957
P_10 0.966000 0.896176 0.909645 0.780621 0.722026 0.687094
P_10 0.623665 0.572635 0.464845 0.390021 0.362698 0.363756
P_10 0.367203 0.374859 0.444472 0.515412 0.585313 0.585960
P_10 0.816909 0.849919 1.068859 1.041503 1.111268 1.196887
P_10 1.359160 1.280090 1.282936 1.303029 1.233522 1.159705
P_10 1.122316 1.125482 0.996725 1.029692 1.033138 0.915189
P_10 0.894124 0.841024 0.905271 0.869980 0.968121 0.970247
P_10 0.980118 0.983700 1.064025 1.103223 1.163885 1.168944
P_10 1.104075 1.063313 1.017543 0.906200 0.844997 0.728718
P_10 0.659736 0.522368 0.503194 0.408204 0.417150 0.392582
P_10 0.378748 0.390407 0.458837 0.514932 0.596492 0.664826
P_10 0.783843 0.883228 0.929949 0.950309 1.152957 1.262673
P_10 1.250990 1.296948 1.348588 1.280474 1.196942 1.245027
P_10 1.117180 1.119725 1.014581 1.059260 1.007721 0.953736
P_10 0.966519 0.935653 0.899962 0.885717 0.896902 1.044720
P_10 1.062932 1.110267 1.203803 1.288899 1.041037 1.207463
P_10 0.943295 1.106251 0.967000 0.896368 0.801038 0.684946
P_10 0.617348 0.553943 0.477800 0.401000 0.390671 0.397223
P_10 0.388113 0.393839 0.444007 0.542641 0.641577 0.798907
P_10 0.851054 0.949210 1.018552 1.044533 1.126983 1.138830
P_10 1.204973 1.251909 1.319979 1.218041 1.197472 1.228159
P_10 1.095210 1.214747 1.077961 1.042700 1.104772 1.108713
P_10 1.015437 1.042151 0.948871 1.030081 0.997551 1.021025
P_10 1.038949 1.002663 1.208946 1.172057 1.118794 1.266614
P_10 1.010974 1.070226 1.034165 0.868982 0.883777 0.741425
P_10 0.724330 0.563766 0.520050 0.429643 0.373515 0.387681
P_10 0.355695 0.402762 0.444015 0.536461 0.616420 0.720939
P_10 0.755303 1.001415 0.978558 1.138025 1.237704 1.155778
P_10 1.222368 1.307494 1.324259 1.334625 1.256060 1.150736
P_10 1.150167 1.113928 1.051937 1.020899 0.947161 0.935030
P_10 0.990125 0.999457 1.018179 0.984356 1.030993 1.095162
P_10 1.059090 1.109696 1.071725 1.194911 1.141674 1.117163
P_10 1.105677 1.020345 0.994192 0.941108 0.878722 0.802744
P_10 0.671365 0.620633 0.555327 0.451316 0.405290 0.404498
P_10 0.439133 0.427588 0.514756 0.578126 0.684247 0.833833
P_10 0.969362 1.015865 1.204092 1.179531 1.332113 1.369382
P_10 1.488424 1.438963 1.543712 1.344274 1.396808 1.471495
P_10 1.348580 1.195064 1.207642 1.198353 1.145459 1.087659
P_10 1.142474 1.003947 1.073081 1.073390 1.088212 1.034759
P_10 1.130931 1.039580 1.005295 1.175827 1.161888 1.071423
P_10 1.009317 0.949803 0.929296 0.996733 0.880454 0.778026
P_10 0.690932 0.681853 0.600945 0.526808 0.487414 0.433482
P_10 0.418450 0.417308 0.409405 0.460558 0.489972 0.588384
P_10 0.602806 0.767358 0.836608 0.937902 0.974583 1.039189
P_10 1.092280 1.214960 1.128282 1.156165 1.202543 1.213573
P_10 1.213376 1.115798 1.081587 1.085093 1.098006 1.067076
P_10 1.000929 1.089891 1.111324 1.068627 1.066392 1.077629
P_10 1.110350 1.086015 1.163408 1.002644 1.018096 0.989263
P_10 0.934420 0.867197 0.809474 0.840265 0.727480 0.737563
P_10 0.622324 0.562258 0.547834 0.519309 0.471224 0.436726
P_10 0.429854 0.405091 0.418498 0.420878 0.453856 0.520733
P_10 0.559243 0.570957 0.644295 0.674163 0.759914 0.931017
P_10 0.920275 0.958110 1.084676 1.092332 1.203646 1.134564
P_10 1.165660 1.137460 0.959141 1.013979 0.944231 0.928908
P_10 0.924485 0.915902 1.004245 0.907180 0.962459 1.002481
P_10 1.046608 0.929015 1.054450 0.976714 1.082653 1.152233
P_10 1.031114 1.007685 0.956624 0.882581 0.833140 0.644583
P_10 0.673062 0.517115 0.464734 0.415732 0.394904 0.383885
P_10 0.374327 0.418926 0.433117 0.480700 0.559395 0.620195
P_10 0.789064 0.869429 0.969546 1.133703 1.154933 1.265565
P_10 1.285339 1.407972 1.390874 1.256272 1.331577 1.282145
P_10 1.088579 1.215959 1.107462 1.075336 1.074768 0.967309
P_10 0.854871 0.980037 0.895663 0.941052 0.953560 0.919534
P_10 0.965887 1.142410 1.066809 1.170263 1.130000 1.198840
P_10 1.133360 1.009398 0.900084 0.923562 0.835484 0.761958
P_10 0.660103 0.604547 0.568178 0.425734 0.401041 0.361606
P_10 0.372513 0.388332 0.427552 0.495868 0.590366 0.700618
P_10 0.805166 0.866905 0.983927 1.102162 1.104408 1.112389
P_10 1.202607 1.349886 1.235271 1.340559 1.245990 1.253244
P_10 1.126872 1.136746 1.037686 1.079717 0.977054 0.999374
P_10 1.005708 1.028786 1.020744 1.056807 0.945264 1.068327
P_10 1.097804 1.136030 1.111736 1.220306 1.172262 1.094857
P_10 1.110223 1.054521 0.987103 0.907113 0.824767 0.677482
P_10 0.646948 0.544087 0.486191 0.422717 0.398559 0.366818
P_10 0.428748 0.385887 0.510909 0.554443 0.644966 0.730205
P_10 0.862694 1.041169 1.044634 1.131287 1.215730 1.273197
P_10 1.373309 1.293164 1.390724 1.323430 1.376964 1.196463
P_10 1.125187 1.052646 1.118524 1.121234 1.097255 1.000989
P_10 1.002596 0.867446 0.968753 1.045447 1.073510 1.057680
P_10 1.128767 1.101836 1.135683 1.056536 1.277835 1.108037
P_10 1.142305 1.049542 0.950370 0.919987 0.894959 0.718421
P_10 0.653616 0.579219 0.514134 0.428005 0.392785 0.385822
P_10 0.368463 0.413475 0.431638 0.542466 0.634808 0.730027
P_10 0.832882 0.997561 1.045824 1.034346 1.189642 1.244277
P_10 1.263905 1.292755 1.309060 1.247329 1.281412 1.222722
P_10 1.252602 1.192525 1.156996 1.055629 0.928512 1.009446
P_10 1.079048 0.970921 0.946086 0.975133 0.956907 1.004834
P_10 1.117540 1.106909 1.251006 1.233349 1.105319 1.215569
P_10 1.119480 1.128768 0.989858 1.025207 0.919418 0.829797
P_10 0.607022 0.623145 0.567427 0.471204 0.439025 0.379907
P_10 0.444838 0.418535 0.488182 0.563797 0.654350 0.776943
P_10 0.865609 1.119508 1.282051 1.268359 1.399675 1.361779
P_10 1.596580 1.664771 1.493290 1.343692 1.484303 1.248826
P_10 1.209867 1.264981 1.269891 1.129149 1.109943 1.098914
P_10 0.978021 1.055493 1.080529 1.103914 1.115585 1.125842
P_10 1.097340 1.036670 1.254719 1.201689 1.161791 1.133781
P_10 1.096608 1.053886 0.953116 0.953042 0.851044 0.803974
P_10 0.718042 0.645049 0.608200 0.552157 0.482978 0.463196
P_10 0.454299 0.440137 0.458994 0.487414 0.529857 0.608043
P_10 0.626509 0.743983 0.845194 0.980184 1.037284 1.206355
P_10 1.244142 1.188431 1.361098 1.236241 1.232840 1.177876
P_10 1.042885 1.181643 1.168939 1.059305 1.109331 1.061678
P_10 1.107352 0.984843 1.127056 1.104407 0.995555 1.062599
P_10 1.094261 1.151789 1.141297 1.054703 0.964303 1.092353
P_10 1.007569 0.971975 0.839006 0.820151 0.741656 0.711810
P_10 0.592105 0.601545 0.541904 0.513011 0.432378 0.437767
P_10 0.341605 0.415944 0.389928 0.411055 0.398213 0.490725
P_10 0.542422 0.543166 0.615582 0.704737 0.798323 0.886043
P_10 0.895146 0.973087 1.011133 1.234378 1.173405 1.125763
P_10 1.058928 1.117576 1.131000 1.029014 0.924479 0.941984
P_10 0.970708 1.011808 0.870230 0.976954 0.880501 1.007647
P_10 0.945724 1.121335 1.139318 1.090593 1.047599 1.071867
P_10 1.085133 1.003743 0.899266 0.885928 0.788443 0.727519
P_10 0.636219 0.542291 0.515355 0.442236 0.370993 0.373801
P_10 0.377736 0.414916 0.429643 0.526134 0.642731 0.691190
P_10 0.786960 0.902212 0.983266 0.983250 1.183315 1.311236
P_10 1.230144 1.450379 1.344370 1.448047 1.472553 1.276311
P_10 1.337656 1.229972 1.069647 1.070588 1.025374 0.971673
P_10 0.978772 0.868706 0.920769 0.865115 0.921721 0.891572
P_10 1.051125 1.009789 1.156992 1.207204 1.092919 1.188155
P_10 1.134268 1.194941 0.994594 0.979692 0.896964 0.732647
P_10 0.694916 0.577701 0.551892 0.427577 0.385139 0.360398
P_10 0.399906 0.429246 0.444670 0.488517 0.593679 0.630374
P_10 0.794622 0.919157 1.003167 1.110132 1.067367 1.338415
P_10 1.205936 1.285400 1.399733 1.295825 1.321252 1.218123
P_10 1.125363 1.174409 1.179999 1.061656 1.012746 1.008054
P_10 0.924582 0.959903 0.981241 0.982008 0.886829 1.121979
P_10 1.218721 1.180973 1.150694 1.143948 1.209198 1.221401
P_10 1.184466 1.019621 1.072052 0.997457 0.864629 0.755773
P_10 0.671918 0.615572 0.426481 0.444177 0.406115 0.370017
P_10 0.383220 0.457882 0.462475 0.591680 0.607863 0.805727
P_10 0.906249 0.865399 1.156095 1.145130 1.056939 1.312884
P_10 1.298069 1.394015 1.332818 1.275529 1.317380 1.339054
P_10 1.237630 1.197166 1.126233 1.129380 1.109944 1.102193
P_10 1.035202 1.121962 0.903974 0.979889 1.080902 1.092220
P_10 1.097136 1.049089 1.124304 1.249147 1.080732 1.204648
P_10 1.070838 1.041166 0.970753 0.959011 0.880273 0.831862
P_10 0.686801 0.616612 0.602953 0.397917 0.445583 0.370811
P_10 0.443305 0.424751 0.452754 0.560871 0.550729 0.693315
P_10 0.753420 0.904777 1.001301 1.146494 1.207330 1.300456
P_10 1.347196 1.267167 1.313885 1.231586 1.327095 1.336625
P_10 1.232143 1.217806 1.098719 0.996174 1.016290 1.036742
P_10 1.038581 1.026665 0.991605 1.026189 1.028003 1.097937
P_10 1.018876 1.134471 1.212029 1.112372 1.186078 1.224830
P_10 1.173896 1.078594 1.043724 0.886183 0.907162 0.829327
P_10 0.739652 0.623096 0.514484 0.485569 0.440039 0.395980
P_10 0.401377 0.455910 0.519815 0.591485 0.703312 0.824873
P_10 1.002142 1.086187 1.160824 1.251595 1.359313 1.503365
P_10 1.418392 1.390312 1.503548 1.611412 1.459110 1.437074
P_10 1.390014 1.272259 1.285245 1.224708 1.148221 1.039254
P_10 1.077362 1.041209 1.111970 1.093318 1.070935 1.057112
P_10 1.273316 1.159627 1.222359 1.123918 1.117189 1.065358
P_10 1.009712 1.117210 0.984459 0.961544 0.906219 0.874276
P_10 0.698974 0.683394 0.576743 0.489238 0.473791 0.464814
P_10 0.462471 0.454403 0.476849 0.473191 0.536857 0.626548
P_10 0.698794 0.807693 0.809553 0.984834 1.022958 1.104299
P_10 1.265198 1.250829 1.288869 1.159865 1.302072 1.122880
P_10 1.104368 1.146129 1.103054 1.165662 1.108190 1.097954
P_10 1.028992 1.167127 0.952822 1.132712 1.157775 1.096225
P_10 1.132748 1.080184 1.058589 1.186870 1.092514 1.049592
P_10 0.985369 0.880776 0.867481 0.867318 0.695928 0.769144
P_10 0.710015 0.622651 0.552412 0.495640 0.455299 0.441968
P_10 0.432033 0.457481 0.447365 0.384014 0.521628 0.450624
P_10 0.543063 0.641415 0.678365 0.667398 0.773901 0.854983
P_10 1.023859 1.080596 1.100722 1.004365 1.087705 1.031527
P_10 1.160035 1.119847 1.043083 1.024975 1.034122 1.019060
P_10 0.967548 0.847778 0.944934 1.004351 0.992595 1.079828
P_10 1.116358 0.924873 1.045904 1.120320 1.133343 1.176640
P_10 1.069845 1.003754 0.864380 0.925465 0.813895 0.675475
P_10 0.623420 0.559126 0.548189 0.412584 0.390403 0.399728
P_10 0.373472 0.388283 0.406937 0.512133 0.564825 0.698021
P_10 0.781101 0.986370 1.036886 1.030163 1.347828 1.211701
P_10 1.338754 1.462445 1.457349 1.388315 1.450411 1.407899
P_10 1.318744 1.276011 1.190762 1.035833 1.006818 1.021618
P_10 0.974128 1.066559 0.984058 0.998589 1.014185 1.018128
P_10 1.100548 1.084836 1.222315 1.136771 1.269417 1.164241
P_10 1.074083 1.107990 1.093500 0.935308 0.920144 0.775236
P_10 0.683655 0.630818 0.548994 0.469390 0.364350 0.395734
P_10 0.390580 0.435340 0.470327 0.521635 0.628008 0.740292
P_10 0.801671 0.938649 0.962446 1.144310 1.183626 1.332181
P_10 1.221161 1.318306 1.287371 1.389973 1.329909 1.237378
P_10 1.242208 1.215368 1.160825 1.127302 1.128090 0.997363
P_10 1.030541 1.031590 0.956621 1.012370 1.054212 1.112715
P_10 1.154067 1.143921 1.257135 1.245258 1.329245 1.227449
P_10 1.144228 1.164593 1.103312 1.000710 0.801847 0.719208
P_10 0.713350 0.564933 0.504239 0.437425 0.431935 0.359823
P_10 0.426223 0.429821 0.518333 0.576871 0.662151 0.767001
P_10 0.962638 0.947999 1.034811 1.198192 1.185603 1.288965
P_10 1.406779 1.368168 1.244984 1.343428 1.318567 1.240398
P_10 1.184836 1.162541 1.189944 1.162714 1.070699 1.124792
P_10 0.979965 1.102571 1.055838 0.950950 1.209499 1.112957
P_10 1.125263 1.182968 1.269761 1.209751 1.116482 1.185904
P_10 1.127888 1.154311 0.974145 0.938551 0.928803 0.823192
P_10 0.756929 0.655108 0.518764 0.444857 0.435696 0.383776
P_10 0.379397 0.438295 0.532644 0.603219 0.622276 0.718700
P_10 0.856511 0.948253 1.026051 1.081003 1.330060 1.276711
P_10 1.269986 1.348759 1.404737 1.313066 1.318874 1.213709
P_10 1.226095 1.221512 1.096633 1.066358 1.084875 0.934821
P_10 1.016533 1.070418 1.006413 1.157389 1.131324 1.119624
P_10 1.097271 1.153779 1.196696 1.272441 1.249183 1.256774
P_10 1.078098 1.169169 1.079641 0.989243 0.965079 0.822735
P_10 0.753045 0.598926 0.572506 0.455228 0.445496 0.406355
P_10 0.415408 0.436014 0.520402 0.569425 0.742917 0.827433
P_10 0.948629 1.033355 1.134946 1.362117 1.331158 1.568261
P_10 1.711099 1.440407 1.478677 1.523821 1.447648 1.563189
P_10 1.279583 1.369076 1.317802 1.207258 1.150603 1.121406
P_10 1.120875 1.122977 1.137107 1.064778 1.072908 1.147426
P_10 1.227308 1.251962 1.211424 1.217974 1.107803 1.167928
P_10 1.174860 1.079651 1.022196 0.881845 0.885684 0.834108
P_10 0.659530 0.673597 0.609611 0.515837 0.450870 0.535234
P_10 0.471360 0.445563 0.453103 0.560628 0.591154 0.600389
P_10 0.682008 0.752201 0.894761 0.930457 1.081747 1.116752
P_10 1.231694 1.170480 1.299535 1.273360 1.345354 1.328372
P_10 1.256838 1.232885 1.276612 1.114140 1.191183 1.055027
P_10 1.127288 1.050112 1.134737 1.150657 1.127004 1.068946
P_10 1.123200 1.050039 1.178240 1.047108 1.022466 1.033928
P_10 0.889972 0.909982 0.952231 0.832571 0.770721 0.702557
P_10 0.684600 0.571925 0.619732 0.517235 0.516731 0.473712
P_10 0.469150 0.421892 0.429564 0.441030 0.433306 0.522548
P_10 0.564700 0.605230 0.761446 0.724663 0.853720 0.972820
P_10 1.024803 1.113567 1.049706 1.058099 1.193975 1.138993
P_10 1.155652 1.181562 1.098435 1.065189 1.026242 1.059362
P_10 1.065242 0.928676 0.868242 0.968688 1.080404 0.908980
P_10 1.161608 1.042961 1.191215 1.131696 1.220550 1.048500
P_10 1.132789 1.043190 1.004623 0.902071 0.801110 0.740675
P_10 0.683058 0.567255 0.493860 0.450819 0.382284 0.393202
P_10 0.373084 0.410882 0.479518 0.564201 0.630379 0.692118
P_10 0.898882 0.966294 0.987253 1.190135 1.262538 1.266775
P_10 1.313388 1.517835 1.505735 1.427288 1.426326 1.498234
P_10 1.347989 1.294315 1.161627 1.065190 1.150832 0.977118
P_10 0.913551 0.997229 0.956277 0.925066 1.012246 1.123776
P_10 1.094878 1.185586 1.228686 1.199645 1.254234 1.272400
P_10 1.273881 1.170670 1.031180 1.047104 0.888138 0.790310
P_10 0.694145 0.657075 0.568352 0.462724 0.436121 0.388533
P_10 0.398967 0.423948 0.450343 0.527974 0.656997 0.700495
P_10 0.889254 0.820324 1.110765 1.182676 1.225137 1.274677
P_10 1.259220 1.297489 1.451259 1.440098 1.455430 1.288577
P_10 1.265129 1.152670 1.112061 1.062557 0.983986 1.052189
P_10 0.977485 0.890022 0.984863 1.097899 1.064906 1.178816
P_10 1.114577 1.164099 1.162934 1.277298 1.222974 1.266842
P_10 1.226677 1.177744 1.138228 0.987240 0.830272 0.786823
P_10 0.667454 0.603304 0.541652 0.454266 0.433786 0.413365
P_10 0.415313 0.456054 0.556574 0.617756 0.681974 0.819741
P_10 0.884434 1.001792 1.052755 1.152529 1.210096 1.349500
P_10 1.388996 1.250860 1.287054 1.324380 1.393700 1.306275
P_10 1.201731 1.264163 1.054475 1.137114 1.083844 1.110803
P_10 1.063275 1.042815 1.089993 1.106234 1.015302 1.148679
P_10 1.192494 1.201432 1.312028 1.129498 1.223591 1.380421
P_10 1.193366 1.145894 1.139238 0.985656 0.947084 0.823668
P_10 0.731099 0.657945 0.571464 0.457679 0.437255 0.400533
P_10 0.465630 0.433584 0.463431 0.599915 0.636648 0.863486
P_10 0.956915 0.970136 1.036007 1.189890 1.264402 1.337670
P_10 1.432172 1.467578 1.397249 1.296124 1.303484 1.376262
P_10 1.213762 1.135278 1.274017 1.085053 1.196208 1.057531
P_10 0.996203 0.980768 1.029266 1.134528 1.160117 1.109177
P_10 1.183973 1.120997 1.099340 1.291682 1.268890 1.191484
P_10 1.256513 1.148773 1.086047 1.067633 0.963536 0.905288
P_10 0.746911 0.658295 0.566745 0.529267 0.437956 0.442570
P_10 0.425425 0.479144 0.525946 0.663549 0.695555 0.856460
P_10 1.034941 1.067661 1.216879 1.413983 1.503563 1.622308
P_10 1.568158 1.540128 1.731744 1.561258 1.521845 1.503084
P_10 1.470789 1.297733 1.309325 1.147274 1.189383 1.160039
P_10 1.106881 1.112213 1.144145 1.083011 1.281568 1.150134
P_10 1.193894 1.216252 1.127971 1.211046 1.175325 1.047234
P_10 1.160209 1.197950 1.110264 0.940676 0.853291 0.892815
P_10 0.757133 0.723318 0.573990 0.511409 0.526876 0.464203
P_10 0.441599 0.453559 0.482458 0.513790 0.568863 0.633469
P_10 0.711274 0.888920 0.873361 0.994132 1.133242 1.168662
P_10 1.211715 1.222224 1.238810 1.362124 1.277343 1.273833
P_10 1.137742 1.307755 1.140075 1.304993 1.157634 1.163851
P_10 1.139375 1.167093 1.072941 1.179192 1.195273 1.182885
P_10 1.167890 1.155968 1.087162 1.180511 1.135079 1.009226
P_10 1.090961 1.003872 0.958289 0.913656 0.836703 0.745639
P_10 0.711131 0.666460 0.630698 0.603121 0.531455 0.454532
P_10 0.471019 0.430339 0.477877 0.426725 0.468256 0.496799
P_10 0.541346 0.662278 0.687523 0.743923 0.807261 0.867273
P_10 0.978370 1.112472 1.188743 1.182862 1.156249 1.195241
P_10 1.283894 1.134108 1.108351 1.068470 1.124529 0.962674
P_10 1.014273 1.045184 1.025408 0.950490 1.017451 1.075568
P_10 1.087018 1.041072 1.072971 1.106463 1.108902 1.157036
P_10 1.051590 1.088510 0.980491 0.939094 0.884713 0.791698
P_10 0.599389 0.580122 0.544274 0.474451 0.390238 0.416094
P_10 0.415387 0.460770 0.444103 0.524216 0.665163 0.785560
P_10 0.867094 0.866404 1.009685 1.238313 1.155353 1.291602
P_10 1.432726 1.452591 1.525780 1.511151 1.388826 1.389962
P_10 1.384546 1.249678 1.197268 1.092067 1.073969 1.059755
P_10 0.898535 0.962635 0.929226 0.993231 1.069531 1.055009
P_10 1.065487 1.101655 1.229887 1.302165 1.164205 1.335633
P_10 1.260571 1.157233 1.050299 0.977506 0.894795 0.804417
P_10 0.661023 0.690997 0.524883 0.485229 0.438591 0.395198
P_10 0.421591 0.459283 0.531568 0.582711 0.668527 0.724665
P_10 0.903879 0.961195 1.055688 1.166082 1.140880 1.206641
P_10 1.453736 1.375780 1.319191 1.395694 1.307887 1.292242
P_10 1.303228 1.280992 1.171909 1.145204 1.000652 1.077475
P_10 0.957056 0.924714 1.036581 1.016975 1.086893 1.166082
P_10 1.134544 1.266779 1.362895 1.264553 1.297645 1.299255
P_10 1.214733 1.250675 0.945496 1.043426 1.020943 0.769261
P_10 0.724726 0.580158 0.538006 0.489997 0.368157 0.420705
P_10 0.411043 0.485839 0.538175 0.598979 0.762642 0.807856
P_10 0.842749 1.018176 1.115955 1.192826 1.266188 1.219720
P_10 1.347261 1.335097 1.410724 1.355818 1.347473 1.458162
P_10 1.206794 1.316223 1.285042 1.240331 1.172878 1.173944
P_10 1.043761 1.071422 1.092233 1.081054 1.192097 1.121251
P_10 1.185410 1.216174 1.169455 1.159884 1.241309 1.182515
P_10 1.183852 1.270488 1.129636 0.979337 0.878899 0.845396
P_10 0.710424 0.602586 0.526652 0.521692 0.455031 0.401936
P_10 0.406394 0.460367 0.576133 0.594343 0.696770 0.853207
P_10 0.887485 1.009315 1.148455 1.263871 1.285327 1.363403
P_10 1.265182 1.433184 1.343920 1.357837 1.325673 1.324439
P_10 1.351167 1.167367 1.132502 1.034964 1.107785 1.103402
P_10 1.083363 1.088824 1.116721 1.040357 1.243834 1.043671
P_10 1.196247 1.198038 1.324791 1.278834 1.204748 1.197609
P_10 1.259790 1.138606 1.133889 1.094539 0.902888 0.803067
P_10 0.742398 0.659527 0.606883 0.496535 0.409260 0.481296
P_10 0.436934 0.492852 0.537661 0.679472 0.784788 0.888427
P_10 0.990414 1.062356 1.324813 1.352101 1.540249 1.394219
P_10 1.695043 1.636533 1.691314 1.652145 1.438336 1.414025
P_10 1.261060 1.350580 1.292524 1.216516 1.234924 1.129507
P_10 1.192516 1.029640 1.068106 1.131057 1.220869 1.290883
P_10 1.238001 1.293472 1.209086 1.278430 1.183941 1.205084
P_10 1.119722 1.151236 1.087688 1.028879 0.852308 0.858168
P_10 0.784409 0.702056 0.634094 0.566496 0.519437 0.481161
P_10 0.459578 0.453422 0.497871 0.519109 0.554086 0.655185
P_10 0.678117 0.743971 0.880241 1.072994 1.163750 1.145152
P_10 1.193545 1.324067 1.342542 1.420258 1.242942 1.383910
P_10 1.237399 1.321317 1.171004 1.261997 1.251415 1.141185
P_10 1.152624 1.163842 1.229756 1.265397 1.200466 1.182883
P_10 1.224293 1.230819 1.212903 1.191833 1.167881 1.064143
P_10 0.998183 1.009153 1.009624 0.841673 0.891666 0.783379
P_10 0.755616 0.626734 0.607434 0.533632 0.455719 0.472507
P_10 0.453027 0.465581 0.441770 0.463039 0.469905 0.499628
P_10 0.553928 0.594370 0.698823 0.757699 0.897407 1.001329
P_10 1.062062 1.103193 1.092762 1.185698 1.250399 1.225917
P_10 1.120983 1.286849 1.118191 1.026052 1.023109 1.048416
P_10 1.119432 1.068203 1.019648 1.023033 1.050863 1.114525
P_10 1.067746 1.155006 1.159617 1.136519 1.156468 1.170589
P_10 1.097913 1.007595 1.048509 0.878671 0.796532 0.767667
P_10 0.705191 0.612856 0.578832 0.443517 0.468408 0.418968
P_10 0.447794 0.450393 0.461726 0.516776 0.645466 0.779535
P_10 0.852978 0.963147 1.066322 1.078057 1.255634 1.412410
P_10 1.365672 1.564759 1.572441 1.367213 1.555985 1.490747
P_10 1.450733 1.361278 1.254039 1.126877 1.108172 1.027943
P_10 0.997386 1.025672 0.956517 1.014390 1.105799 1.090830
P_10 1.151118 1.173253 1.307119 1.220055 1.301826 1.292740
P_10 1.278439 1.250770 1.089469 1.085177 0.967985 0.795815
P_10 0.721727 0.618890 0.567793 0.498432 0.426020 0.418260
P_10 0.379801 0.471793 0.506541 0.574849 0.587552 0.748957
P_10 0.876135 1.030065 1.048343 1.179406 1.221222 1.195580
P_10 1.260466 1.427858 1.429743 1.404277 1.363085 1.337104
P_10 1.330206 1.217957 1.256550 1.152485 1.091143 1.120620
P_10 1.087288 1.155395 1.011969 1.040332 1.069867 1.135722
P_10 1.260519 1.233452 1.238379 1.303299 1.229703 1.300693
P_10 1.270281 1.149334 1.149596 1.049348 0.846703 0.907616
P_10 0.732541 0.593645 0.542062 0.451639 0.433113 0.434790
P_10 0.448588 0.452997 0.519923 0.620388 0.627116 0.824342
P_10 0.914370 1.051390 1.172071 1.293536 1.194454 1.363810
P_10 1.347885 1.371025 1.526939 1.471556 1.378533 1.342836
P_10 1.336967 1.282596 1.162593 1.294751 1.208345 1.153210
P_10 1.121000 0.998690 1.169120 1.193769 1.187368 1.133386
P_10 1.171761 1.222712 1.162292 1.236246 1.351246 1.264763
P_10 1.250418 1.136359 1.201526 1.048477 0.987601 0.920144
P_10 0.772567 0.660268 0.541369 0.475339 0.473208 0.434407
P_10 0.472271 0.445200 0.539579 0.585506 0.683754 0.758074
P_10 0.963499 1.144511 1.121358 1.149209 1.366264 1.237419
P_10 1.387005 1.363980 1.438986 1.318824 1.368364 1.353455
P_10 1.368538 1.303542 1.173756 1.163648 1.126928 1.015023
P_10 1.090444 1.084352 1.091381 1.138843 1.082007 1.053384
P_10 1.293036 1.310870 1.192120 1.256142 1.217192 1.108955
P_10 1.206509 1.127232 1.218981 1.049751 0.950501 0.774546
P_10 0.747696 0.725223 0.592602 0.518547 0.488981 0.461950
P_10 0.458970 0.493834 0.593679 0.663693 0.795202 0.929090
P_10 1.062365 1.217482 1.248411 1.484688 1.437799 1.658047
P_10 1.517165 1.642474 1.680540 1.490958 1.529284 1.415442
P_10 1.200137 1.408234 1.342613 1.210963 1.157558 1.157645
P_10 1.189047 1.158773 1.109690 1.200670 1.179838 1.333528
P_10 1.227466 1.310449 1.285334 1.188149 1.186579 1.208666
P_10 1.220936 1.055626 1.046809 0.995130 1.039743 0.892972
P_10 0.812327 0.686216 0.606811 0.654946 0.566953 0.522060