; Filename: networks/Net1.inp
; WNTR: 0.1.6
; Created: 2019-04-09 13:09:03
[TITLE]
EPANET Example Network 1
A simple example of modeling chlorine decay. Both bulk and
wall reactions are included.

[JUNCTIONS]
;ID                      Elevation       Demand Pattern                 
 10                               710               0                            ;
 11                               710               0                            ;
 12                               700               0                            ;
 13                               695               0                            ;
 21                               700               0                            ;
 22                               695               0                            ;
 23                               690               0                            ;
 31                               700               0                            ;
 32                               710               0                            ;

[RESERVOIRS]
;ID                                   Head                  Pattern
 9                                800                            ;

[TANKS]
;ID                              Elevation           Init Level            Min Level            Max Level             Diameter           Min Volume Volume Curve        
 2                                850             120             100             150            50.5               0                        ;

[PIPES]
;ID                   Node1                Node2                              Length             Diameter            Roughness           Minor Loss               Status
 10                   10                   11                             10530              18             100               0                 Open   ;
 11                   11                   12                              5280              14             100               0                 Open   ;
 12                   12                   13                              5280              10             100               0                 Open   ;
 21                   21                   22                              5280              10             100               0                 Open   ;
 22                   22                   23                              5280              12             100               0                 Open   ;
 31                   31                   32                              5280               6             100               0                 Open   ;
 110                  2                    12                               200              18             100               0                 Open   ;
 111                  11                   21                              5280              10             100               0                 Open   ;
 112                  12                   22                              5280              12             100               0                 Open   ;
 113                  13                   23                              5280               8             100               0                 Open   ;
 121                  21                   31                              5280               8             100               0                 Open   ;
 122                  22                   32                              5280               6             100               0                 Open   ;

[PUMPS]
;ID                   Node1                Node2                Properties          
 9                    9                    10                   HEAD     1                      ;

[VALVES]
;ID                   Node1                Node2                            Diameter Type              Setting           Minor Loss

[TAGS]
;type      name       tag       

[DEMANDS]
;ID        Demand     Pattern   
10         0.0        P_10      
11         150.0      P_11      
12         150.0      P_12      
13         100.0      P_13      
21         150.0      P_21      
22         200.0      P_22      
23         150.0      P_23      
31         100.0      P_31      
32         100.0      P_32      

[STATUS]
;ID        Setting   
[PATTERNS]
;ID        Multipliers

1 1.000000 1.200000 1.400000 1.600000 1.400000 1.200000
1 1.000000 0.800000 0.600000 0.400000 0.600000 0.800000

P_10 0.592234 0.560183 0.511994 0.482203 0.408070 0.447267
P_10 0.423175 0.418139 0.507342 0.589599 0.531211 0.681003
P_10 0.716308 0.856668 0.956470 0.998721 1.121041 1.137135
P_10 1.236335 1.241104 1.275578 1.231583 1.183033 1.213296
P_10 1.138068 1.148037 1.085130 0.973259 0.978360 0.871465
P_10 0.918803 0.877420 0.893906 0.872056 0.948887 0.961694
P_10 0.938373 1.055257 1.082817 1.041108 0.973848 0.982458
P_10 1.074934 0.925810 0.980676 0.876706 0.818081 0.701816
P_10 0.597533 0.588152 0.528533 0.507612 0.427052 0.428635
P_10 0.452803 0.461084 0.445890 0.505611 0.634513 0.664826
P_10 0.749665 0.756527 0.873953 0.980281 1.030066 1.004883
P_10 1.179038 1.301976 1.187492 1.232658 1.234173 1.070644
P_10 1.079282 1.040261 1.059954 1.045584 0.827978 0.875523
P_10 0.977369 0.829409 0.963311 1.005476 0.895639 0.911212
P_10 1.008291 1.004760 1.083613 1.081588 1.022975 1.056182
P_10 1.011281 1.033165 0.937253 0.847927 0.787755 0.751032
P_10 0.638907 0.576949 0.530615 0.469088 0.456453 0.402107
P_10 0.449297 0.481576 0.483254 0.571554 0.608412 0.682353
P_10 0.787522 0.793132 0.964586 0.996357 1.067467 1.120898
P_10 1.162889 1.156209 1.108008 1.248757 1.151410 1.252804
P_10 1.092990 1.068733 1.086813 0.991030 1.042895 1.042364
P_10 0.896618 0.946616 0.953493 0.958348 0.966576 1.076886
P_10 0.971231 0.995962 1.026370 0.980426 1.009353 1.050685
P_10 0.973927 1.063872 0.962732 0.860932 0.800006 0.730649
P_10 0.637432 0.621980 0.542053 0.476220 0.429959 0.408283
P_10 0.422625 0.483327 0.476185 0.557775 0.659921 0.697884
P_10 0.800045 0.936253 0.933634 1.037017 1.054841 1.119613
P_10 1.161740 1.196099 1.230758 1.102366 1.089039 1.027150
P_10 1.067122 1.029699 0.989290 0.911525 0.978612 0.945253
P_10 0.959993 0.952609 0.922465 1.052739 0.957569 1.068728
P_10 1.111861 1.059760 0.955804 1.022083 1.035727 1.047390
P_10 1.022532 1.004379 1.007427 0.966478 0.838345 0.758475
P_10 0.648874 0.615427 0.573782 0.513293 0.481795 0.440103
P_10 0.431682 0.437207 0.558650 0.588812 0.665552 0.782077
P_10 0.849996 1.026941 1.076830 1.198482 1.117324 1.336180
P_10 1.405676 1.326520 1.323689 1.292695 1.170175 1.264470
P_10 1.101546 1.109286 1.074539 1.054902 1.078932 0.949761
P_10 0.934568 0.927959 1.058752 0.993427 1.006981 1.015964
P_10 1.114393 1.046785 0.993693 0.977151 0.969156 1.004243
P_10 0.993782 1.086670 0.871805 0.828718 0.835849 0.847423
P_10 0.768717 0.727810 0.582305 0.574661 0.527813 0.489439
P_10 0.434625 0.466950 0.476700 0.519656 0.517331 0.627397
P_10 0.649351 0.755760 0.747983 0.882094 0.911621 0.983478
P_10 1.037680 1.050061 1.108207 1.073551 1.191899 1.176370
P_10 1.195488 1.081266 1.142531 1.008404 1.021204 1.038034
P_10 0.977851 0.978119 1.056154 1.043282 1.095669 1.175646
P_10 0.998213 1.052940 1.094985 0.944133 1.023123 0.893207
P_10 0.949930 0.884103 0.769670 0.820773 0.730582 0.747201
P_10 0.650666 0.604748 0.569156 0.534273 0.506665 0.491724
P_10 0.449049 0.441819 0.487863 0.506627 0.501713 0.514044
P_10 0.600930 0.615083 0.685755 0.806908 0.802875 0.895327
P_10 0.914268 0.887031 1.003862 0.970424 1.092635 1.005009
P_10 0.960652 1.047151 1.036264 0.982569 1.103830 1.001908
P_10 0.868668 0.919764 0.971689 0.958203 0.920040 0.948445
P_10 0.975685 0.903842 1.130072 0.996097 0.979772 0.867522
P_10 0.936380 0.988345 0.889636 0.828176 0.788183 0.689427
P_10 0.633996 0.573978 0.540533 0.478421 0.421636 0.453001
P_10 0.401960 0.461845 0.458510 0.571695 0.633331 0.711737
P_10 0.746733 0.897519 0.964981 1.044113 1.043145 1.269754
P_10 1.307723 1.204195 1.280039 1.260023 1.178705 1.231793
P_10 1.215692 1.151568 1.082139 0.994046 0.956111 0.961016
P_10 0.890405 0.824258 0.908650 0.854288 0.824062 0.982739
P_10 0.911414 1.065224 1.074061 1.110389 1.167189 1.044457
P_10 0.981950 1.038336 0.979244 0.876078 0.846629 0.738241
P_10 0.623434 0.572145 0.521317 0.489900 0.449137 0.452345
P_10 0.432515 0.466765 0.496567 0.564410 0.599381 0.713750
P_10 0.793253 0.812063 0.881277 0.973595 1.083047 1.122495
P_10 1.097453 1.237086 1.197612 1.191899 1.098605 1.179634
P_10 1.109625 1.010068 0.931603 0.938365 0.921220 0.908619
P_10 0.975098 0.929316 0.919654 0.979286 1.054341 0.928482
P_10 0.965687 1.008864 1.138932 1.069637 1.067473 1.120145
P_10 1.072321 1.043966 1.065590 0.801700 0.861480 0.731638
P_10 0.642787 0.591882 0.523586 0.491543 0.463134 0.489636
P_10 0.448916 0.427772 0.502831 0.584917 0.629030 0.747678
P_10 0.819660 0.859564 0.979960 1.073187 1.079607 1.178928
P_10 1.005632 1.246862 1.135711 1.196606 1.252025 1.154590
P_10 1.065221 1.131502 1.113913 1.115770 1.011205 1.009257
P_10 0.964015 1.053368 0.974928 0.952233 0.951863 0.918621
P_10 1.002392 0.993449 0.909685 1.116959 1.115183 1.071704
P_10 1.064383 0.916094 0.964376 0.832847 0.854925 0.762883
P_10 0.644550 0.602845 0.536436 0.517387 0.465665 0.427065
P_10 0.452388 0.483962 0.489991 0.562186 0.682702 0.687069
P_10 0.783933 0.840881 0.936715 1.004463 1.174019 1.058099
P_10 1.265556 1.159024 1.246321 1.244628 1.107827 1.085115
P_10 1.033706 1.073213 1.027006 0.999459 1.058053 0.960232
P_10 1.019073 1.024801 0.992810 0.923102 0.963086 1.041149
P_10 1.046517 1.052353 1.078889 1.094197 1.047970 0.932429
P_10 1.074371 0.980870 0.915341 0.897704 0.834461 0.805800
P_10 0.759641 0.620732 0.561628 0.503312 0.462597 0.450209
P_10 0.446238 0.482905 0.569529 0.601934 0.680283 0.821624
P_10 0.937618 0.951784 1.179017 1.267088 1.302982 1.212709
P_10 1.380002 1.343400 1.356432 1.334957 1.310744 1.269170
P_10 1.100174 1.127508 1.277917 1.090566 0.950621 1.012360
P_10 1.001864 1.059412 1.114126 0.981394 1.023776 1.091298
P_10 1.083098 1.015487 1.052093 1.019245 1.068007 1.022351
P_10 1.003347 0.938548 1.023329 0.942921 0.846622 0.763104
P_10 0.668267 0.667714 0.637985 0.593040 0.516032 0.486850
P_10 0.497199 0.479999 0.500354 0.556714 0.531751 0.627404
P_10 0.713505 0.680070 0.817910 0.827263 0.971737 0.938221
P_10 0.993523 1.136891 1.202748 1.081376 1.196687 1.020637
P_10 1.027778 1.110392 1.133274 1.113288 1.034338 0.920933
P_10 1.021660 0.938301 1.052781 0.999798 1.033347 1.076818
P_10 1.035278 1.030062 1.008434 1.042998 0.971614 0.947076
P_10 0.884546 0.848652 0.823945 0.764021 0.744408 0.675614
P_10 0.710593 0.624797 0.666718 0.586200 0.484114 0.467436
P_10 0.456529 0.490412 0.505180 0.464061 0.515776 0.510028
P_10 0.586707 0.639246 0.721100 0.795162 0.762415 0.837359
P_10 0.972446 1.033603 1.144489 1.051262 1.115557 1.028477
P_10 1.094031 1.145245 0.996617 1.030026 0.861824 0.928936
P_10 0.972443 0.904609 0.956496 0.956282 0.958159 0.933549
P_10 0.965098 1.022645 1.005776 1.021153 0.914100 0.971000
P_10 1.044880 0.883832 0.861553 0.894538 0.733819 0.770102
P_10 0.654503 0.557194 0.527806 0.492980 0.417234 0.444319
P_10 0.435486 0.483568 0.470904 0.552791 0.589017 0.661095
P_10 0.704237 0.874679 0.991152 0.995713 1.118443 1.147552
P_10 1.165031 1.260385 1.164971 1.366859 1.280136 1.248855
P_10 1.218264 1.213243 1.052105 1.127964 0.906950 0.994829
P_10 0.930230 0.950545 0.991844 0.889522 0.958097 0.941027
P_10 0.943641 1.083237 1.072964 1.025143 1.096087 1.073624
P_10 0.994011 1.004737 0.971813 0.887160 0.791979 0.775027
P_10 0.755401 0.611256 0.574795 0.478377 0.498076 0.443033
P_10 0.475149 0.440018 0.517675 0.532015 0.600608 0.737484
P_10 0.752854 0.918043 0.877734 0.973823 1.160612 1.137012
P_10 1.239995 1.260062 1.299205 1.261397 1.126753 1.178206
P_10 1.145099 1.078665 1.028323 1.064672 0.996941 0.977170
P_10 0.951347 0.949056 0.960904 0.953318 1.017802 1.051561
P_10 1.076439 1.078814 1.180455 1.136776 1.134826 1.152800
P_10 1.132107 1.030050 0.991443 0.898901 0.826436 0.749814
P_10 0.599235 0.620949 0.533883 0.472460 0.465722 0.437937
P_10 0.493136 0.509584 0.540065 0.530704 0.689298 0.773535
P_10 0.852743 0.856587 0.932115 1.003173 1.086942 1.186867
P_10 1.211328 1.270733 1.150575 1.188343 1.207015 1.137566
P_10 1.128254 1.014317 1.147612 1.060254 1.080504 1.020458
P_10 0.962536 0.907264 0.993514 0.958190 0.999528 1.027184
P_10 1.074178 1.069270 1.183983 1.158829 1.108280 1.211935
P_10 0.974594 1.019946 0.960550 0.895602 0.870679 0.752200
P_10 0.652137 0.634849 0.563486 0.527303 0.499979 0.445262
P_10 0.457580 0.469371 0.524133 0.648166 0.621626 0.646850
P_10 0.893659 0.883519 1.005775 1.063417 1.033260 1.262247
P_10 1.187763 1.242090 1.253003 1.217084 1.131012 1.170771
P_10 1.151083 1.061954 1.068442 1.079095 1.103697 0.959741
P_10 1.042264 0.946428 0.976120 1.006783 0.990040 1.034145
P_10 1.164855 1.076415 1.098806 1.028311 1.123019 1.187664
P_10 1.081480 1.059632 0.998880 0.898998 0.876976 0.713326
P_10 0.722360 0.589391 0.572286 0.506888 0.431683 0.455896
P_10 0.477888 0.442618 0.534888 0.569392 0.679199 0.792153
P_10 0.872950 0.923021 1.073174 1.160908 1.293288 1.269067
P_10 1.322443 1.398753 1.332758 1.386808 1.289667 1.203996
P_10 1.196330 1.108103 1.090953 1.054562 0.959504 1.047189
P_10 1.022090 1.005395 1.049640 0.999197 1.061502 1.108541
P_10 1.121790 1.119972 0.957355 1.080905 1.046470 1.030246
P_10 1.071778 1.064510 0.943607 0.938652 0.841798 0.881137
P_10 0.724737 0.714047 0.619141 0.624406 0.502937 0.475593
P_10 0.428011 0.490898 0.479041 0.541406 0.601234 0.579229
P_10 0.628614 0.831440 0.805006 0.951056 0.903164 1.056252
P_10 1.057251 1.048751 1.100013 1.243153 1.127186 1.124057
P_10 1.067261 1.177643 1.079017 1.029493 1.061508 1.154798
P_10 1.001777 1.035515 1.046192 1.092926 1.011634 1.060737
P_10 0.989610 1.037055 1.067142 0.994562 1.041082 0.891617
P_10 0.923996 0.902927 0.875897 0.832035 0.758630 0.694425
P_10 0.648395 0.641330 0.588271 0.554941 0.524105 0.484333
P_10 0.472562 0.493694 0.495173 0.446773 0.485139 0.576422
P_10 0.616932 0.668890 0.673210 0.729754 0.769609 0.897312
P_10 0.897609 0.960119 0.919719 0.965443 1.196254 1.098852
P_10 1.100881 1.119513 1.009926 1.132072 1.056583 1.043064
P_10 0.877737 0.850168 0.918742 1.006010 0.999618 1.023343
P_10 1.013104 1.031089 1.084426 1.098561 1.015644 1.004482
P_10 1.008130 1.049260 0.901316 0.772591 0.836354 0.737236
P_10 0.692363 0.615918 0.483340 0.534382 0.462430 0.430296
P_10 0.468272 0.457770 0.601837 0.596959 0.604013 0.669214
P_10 0.760573 0.870319 1.052296 1.048631 1.040667 1.178090
P_10 1.266379 1.341495 1.231141 1.288533 1.242247 1.229813
P_10 1.187333 1.273191 1.156356 1.056413 0.953279 1.006534
P_10 0.934590 0.945503 1.041466 1.007507 0.859537 1.003335
P_10 0.963300 0.831495 1.001870 1.074130 1.153603 1.138891
P_10 1.030050 1.083844 0.963595 0.889522 0.755565 0.812331
P_10 0.653217 0.608016 0.542326 0.470720 0.489935 0.464623
P_10 0.424940 0.473683 0.522365 0.560417 0.641517 0.686006
P_10 0.801588 0.873501 0.997790 0.968899 1.064847 1.169382
P_10 1.146990 1.264622 1.232270 1.202096 1.148409 1.128994
P_10 1.184387 1.062934 1.104218 1.057883 0.952920 0.966628
P_10 0.974521 0.949868 0.929275 0.940214 0.988205 1.024907
P_10 1.030067 1.115937 1.075095 1.218918 1.273624 1.145013
P_10 1.073793 1.108594 1.032691 0.960426 0.849062 0.765151
P_10 0.706564 0.641729 0.563307 0.526940 0.479868 0.432950
P_10 0.475318 0.470291 0.553208 0.605810 0.702277 0.776484
P_10 0.820537 0.861634 1.049377 1.105226 1.156450 1.231758
P_10 1.210222 1.140074 1.318279 1.233001 1.142548 1.078691
P_10 1.254924 1.221829 1.153012 1.078391 1.017851 1.028534
P_10 1.050735 0.933261 1.018532 1.112417 1.003863 1.033804
P_10 1.176968 1.071157 1.067029 1.043844 1.021178 1.242479
P_10 1.068804 1.027628 0.981041 0.851663 0.805309 0.738894
P_10 0.723508 0.658924 0.580236 0.500657 0.525745 0.424543
P_10 0.497854 0.490215 0.507909 0.586245 0.702684 0.776951
P_10 0.883695 0.848971 1.035959 1.126961 1.180693 1.107816
P_10 1.258274 1.172476 1.280926 1.223821 1.197780 1.182774
P_10 1.119816 1.084163 1.072861 1.062211 0.978261 1.038033
P_10 0.973743 1.078919 1.116506 0.966494 1.132790 1.073279
P_10 1.078923 1.164238 1.061662 1.081134 1.037921 1.041183
P_10 1.093509 1.030710 0.987172 0.848671 0.869750 0.788143
P_10 0.644133 0.639226 0.592577 0.535175 0.479031 0.427256
P_10 0.470097 0.489658 0.544379 0.635627 0.654253 0.790155
P_10 0.944684 1.022083 1.114648 1.208603 1.264635 1.362508
P_10 1.431563 1.402458 1.341475 1.257507 1.350009 1.313281
P_10 1.212932 1.101346 1.148500 1.182951 1.165356 0.975976
P_10 0.976942 1.001646 1.076308 1.036471 1.081706 1.020905
P_10 1.081792 1.065391 1.065228 1.114489 1.140370 1.088417
P_10 1.097639 1.033829 1.027803 1.011997 0.865882 0.756626
P_10 0.737601 0.614354 0.603582 0.557541 0.538259 0.538746
P_10 0.474964 0.499742 0.500086 0.515403 0.592578 0.609835
P_10 0.681610 0.700640 0.824566 1.011838 1.002490 1.042090
P_10 1.148096 1.100502 1.012277 1.300018 1.227828 1.180749
P_10 1.168601 1.116676 1.052584 1.116496 1.054679 1.013624
P_10 1.048525 1.102433 1.102667 1.046860 1.117376 1.091345
P_10 1.151770 1.084723 1.140462 1.098280 1.085085 1.002767
P_10 1.094551 0.923510 0.836127 0.748256 0.777076 0.682138
P_10 0.681647 0.650369 0.586349 0.614181 0.551296 0.547142
P_10 0.465316 0.447164 0.544995 0.476651 0.558528 0.522474
P_10 0.608442 0.663456 0.770569 0.788534 0.893624 0.917252
P_10 0.975614 0.967064 1.086235 1.040156 1.030885 1.194741
P_10 1.112593 1.185383 1.101046 1.061684 0.998150 1.027965
P_10 1.063248 0.925041 0.948241 1.003111 1.003120 0.992104
P_10 0.962569 1.025843 1.088351 1.092578 1.029531 1.054614
P_10 0.979516 0.933485 0.889224 0.927379 0.788912 0.723307
P_10 0.706209 0.601596 0.561120 0.459824 0.478136 0.495187
P_10 0.431691 0.496501 0.529968 0.606500 0.621403 0.729625
P_10 0.854554 0.846427 1.007654 1.083561 1.155748 1.199798
P_10 1.235426 1.312217 1.352012 1.363594 1.335512 1.351394
P_10 1.284286 1.281989 1.029262 1.168083 1.034975 0.958508
P_10 0.925911 0.938741 0.961509 1.028020 0.967485 1.002626
P_10 0.996934 1.085456 1.114133 1.105944 1.151160 1.109954
P_10 1.011600 1.068186 1.021957 0.916616 0.847528 0.818346
P_10 0.702920 0.628954 0.536794 0.493897 0.463369 0.444552
P_10 0.477625 0.467473 0.567210 0.603018 0.588957 0.708502
P_10 0.820027 0.892163 0.935152 1.050554 1.058249 1.128098
P_10 1.142161 1.349399 1.370623 1.281999 1.208360 1.256346
P_10 1.217775 1.150328 1.138462 1.054310 0.998656 0.885578
P_10 1.010498 1.008196 1.003563 1.054341 0.970120 1.001835
P_10 1.005865 1.052497 1.230057 1.069472 1.102939 1.132294
P_10 1.119460 1.110645 1.002202 0.962375 0.886882 0.751137
P_10 0.682711 0.632289 0.585916 0.482286 0.468430 0.441410
P_10 0.497608 0.540293 0.565668 0.551080 0.700039 0.735456
P_10 0.912525 0.992241 0.902184 1.154888 1.190416 1.194388
P_10 1.240900 1.350845 1.354967 1.359206 1.228928 1.310244
P_10 1.248159 1.150818 1.125501 1.059101 1.150842 1.126813
P_10 0.960557 1.097124 0.981252 0.896345 1.135934 1.075357
P_10 1.132743 1.070334 1.084109 1.220907 1.063300 1.204044
P_10 1.057265 1.082356 1.006857 0.915184 0.900810 0.791376
P_10 0.708296 0.628665 0.600000 0.501386 0.520326 0.480810
P_10 0.428641 0.479599 0.512060 0.620776 0.647734 0.766726
P_10 0.819345 0.987206 1.062153 1.055843 1.091804 1.283898
P_10 1.279391 1.244206 1.244640 1.241746 1.183276 1.222218
P_10 1.191194 1.034825 1.056968 1.082740 1.089744 1.026725
P_10 0.953767 1.016496 1.090268 1.033669 1.063140 1.029938
P_10 1.192267 1.056813 1.221771 1.228110 1.078278 1.145357
P_10 1.122578 1.100016 1.080000 0.958028 0.850126 0.748232
P_10 0.729917 0.727233 0.589582 0.561180 0.494694 0.453378
P_10 0.505196 0.478826 0.548338 0.636986 0.762863 0.777158
P_10 0.986314 1.076006 1.121302 1.255561 1.409067 1.450448
P_10 1.393874 1.530789 1.435022 1.356318 1.306982 1.403942
P_10 1.341168 1.198322 1.197459 1.117922 1.174706 1.132822
P_10 1.121748 1.133606 1.104930 1.055558 1.116367 1.112812
P_10 1.127675 1.044400 1.145889 1.073895 1.030805 1.063187
P_10 1.031666 1.068399 1.025082 0.867600 0.862340 0.856161
P_10 0.768568 0.582587 0.661114 0.636069 0.546945 0.522110
P_10 0.511694 0.513210 0.504623 0.506230 0.605673 0.576024
P_10 0.732430 0.787288 0.823399 0.828265 1.104139 1.044407
P_10 1.159923 1.247349 1.216899 1.160553 1.117955 1.178142
P_10 1.105999 1.195104 1.175823 1.108151 1.119172 1.046866
P_10 1.005404 1.047383 1.040516 1.075109 1.117065 1.046350
P_10 1.121294 1.154619 1.056673 1.097399 1.134777 1.066815
P_10 1.019801 0.889632 0.911923 0.898351 0.807310 0.692439
P_10 0.700598 0.638392 0.669708 0.545656 0.561263 0.536765
P_10 0.480715 0.513631 0.503710 0.520335 0.538780 0.594816
P_10 0.672856 0.716982 0.690520 0.751130 0.826594 0.905031
P_10 0.965472 0.974496 1.154684 1.041655 1.264620 1.072272
P_10 1.172041 1.160027 1.095121 1.195758 1.046530 1.050029
P_10 0.963540 0.983447 0.961543 0.949283 1.025869 0.964713
P_10 1.016135 1.037168 1.028749 1.051763 1.113170 1.088950
P_10 1.080709 1.080604 0.930651 0.870920 0.788860 0.797877
P_10 0.689744 0.619549 0.549429 0.566070 0.435851 0.441057
P_10 0.494607 0.508599 0.554232 0.628133 0.632671 0.752640
P_10 0.917412 0.941052 1.043989 1.078139 1.184544 1.232399
P_10 1.378060 1.363102 1.426858 1.356598 1.410805 1.251501
P_10 1.189472 1.099648 1.157730 1.080005 1.019116 0.976286
P_10 1.001730 0.916963 0.940798 1.061123 1.047634 1.080263
P_10 1.093739 1.115416 1.133740 1.231551 1.193790 1.054406
P_10 1.081136 1.049258 1.030439 0.954312 0.879717 0.727188
P_10 0.694105 0.639528 0.559839 0.554238 0.488552 0.469644
P_10 0.458354 0.496082 0.518050 0.612471 0.667549 0.672586
P_10 0.915089 0.986136 0.955418 1.037223 1.141264 1.116468
P_10 1.241880 1.247249 1.509916 1.352189 1.276749 1.226396
P_10 1.165520 1.264613 1.093711 1.070688 1.020561 0.995714
P_10 0.949920 1.023769 1.035277 1.057076 0.981814 1.027790
P_10 1.170400 1.165975 1.255276 1.210728 1.200237 1.123703
P_10 1.172083 1.236630 1.062727 1.004619 0.907124 0.711649
P_10 0.719661 0.614106 0.555336 0.518065 0.492487 0.465025
P_10 0.510889 0.482240 0.522531 0.656929 0.774560 0.757773
P_10 0.787232 0.977168 0.986527 1.094707 1.162952 1.170885
P_10 1.258046 1.261783 1.303717 1.293711 1.274555 1.291704
P_10 1.195948 1.278400 1.167699 1.144885 1.169001 1.028422
P_10 1.103235 1.166518 1.075039 1.058768 1.078216 1.057769
P_10 1.112783 1.037442 1.173476 1.191551 1.175532 1.125681
P_10 1.245539 1.146617 1.043763 0.955363 0.907914 0.887169
P_10 0.723455 0.699184 0.569643 0.449340 0.511713 0.461449
P_10 0.509142 0.511725 0.528458 0.664997 0.713387 0.831793
P_10 0.845187 0.890123 1.027702 1.222567 1.316207 1.243848
P_10 1.160515 1.295507 1.250228 1.227744 1.158167 1.233073
P_10 1.146166 1.190028 1.142801 1.096004 1.100865 0.997990
P_10 0.932977 1.026447 1.174040 1.022239 1.088225 1.134916
P_10 1.072032 1.141293 1.189134 1.159892 1.131843 1.119065
P_10 1.199680 1.055865 1.065145 0.955688 0.950859 0.816026
P_10 0.753631 0.694368 0.563497 0.533977 0.492044 0.496838
P_10 0.488300 0.521859 0.587792 0.657869 0.753090 0.887761
P_10 0.918462 1.212856 1.211887 1.280695 1.344431 1.468875
P_10 1.494026 1.480423 1.376510 1.481537 1.319597 1.247668
P_10 1.233478 1.214636 1.389009 1.222808 1.050893 1.178465
P_10 1.025808 1.117081 1.066540 1.037111 1.091648 1.240673
P_10 1.132192 1.256767 1.130580 1.067779 1.125540 1.128407
P_10 1.102138 0.953112 1.034195 1.017579 0.919903 0.844571
P_10 0.799750 0.725826 0.610481 0.605196 0.612901 0.558307
P_10 0.523777 0.531070 0.543857 0.490119 0.603085 0.685433
P_10 0.747604 0.811374 0.862709 0.927086 1.027580 1.041291
P_10 1.245155 1.300314 1.161605 1.258913 1.242780 1.196868
P_10 1.165986 1.187064 1.063454 1.125521 1.112288 1.066955
P_10 1.090954 1.250818 1.173229 1.141115 1.154061 1.113609
P_10 1.147604 1.235773 1.063429 1.173878 1.066184 1.090118
P_10 0.993265 0.919999 0.973743 0.814967 0.762852 0.739845
P_10 0.688779 0.653836 0.639106 0.655801 0.607771 0.558287
P_10 0.508903 0.533671 0.507348 0.491990 0.569574 0.588591
P_10 0.595116 0.695060 0.752773 0.853408 0.836679 0.980975
P_10 0.994545 1.086601 1.119793 1.243594 1.141723 1.125850
P_10 1.155700 1.176249 1.035084 1.134569 1.096017 0.943759
P_10 1.127342 1.064810 1.021102 1.056737 1.062300 1.082286
P_10 1.071978 1.085202 1.068139 1.146191 1.153096 1.089937
P_10 1.136947 1.098049 0.979054 0.876646 0.805178 0.805218
P_10 0.699860 0.596298 0.594026 0.508504 0.489499 0.468731
P_10 0.491750 0.485882 0.547975 0.588448 0.679056 0.741345
P_10 0.829678 0.994033 1.028198 1.103680 1.188489 1.353718
P_10 1.447300 1.504567 1.368244 1.531439 1.315599 1.326466
P_10 1.330814 1.224426 1.097664 1.102696 1.089852 1.001083
P_10 1.014431 0.966286 0.951355 1.042000 0.985622 1.090118
P_10 1.153925 1.161335 1.227626 1.150511 1.184848 1.215381
P_10 1.182350 1.122350 1.024031 0.962416 0.888436 0.813214
P_10 0.764986 0.684461 0.554824 0.543025 0.444528 0.508043
P_10 0.452461 0.513373 0.533616 0.603719 0.683496 0.791092
P_10 0.860442 0.990000 1.029445 1.114200 1.152176 1.242376
P_10 1.186457 1.223708 1.417823 1.331770 1.236419 1.442012
P_10 1.187188 1.176139 1.145932 1.196700 0.941440 1.049590
P_10 1.061105 1.038075 0.969608 0.962712 1.019720 1.151744
P_10 1.102585 1.163386 1.153501 1.194953 1.214785 1.319070
P_10 1.248421 1.205951 1.030067 0.951532 0.898026 0.785139
P_10 0.802668 0.615047 0.591632 0.503806 0.516142 0.510733
P_10 0.482267 0.533305 0.585634 0.657172 0.680297 0.840597
P_10 0.868843 0.933568 1.059420 1.031241 1.208858 1.269593
P_10 1.250935 1.226498 1.313049 1.327043 1.428565 1.237463
P_10 1.161994 1.175362 1.270885 1.263825 1.201231 1.047346
P_10 1.044154 1.111481 1.095913 1.038873 1.057349 1.056692
P_10 1.169115 1.139569 1.145256 1.220517 1.208328 1.115842
P_10 1.107395 1.195946 1.172772 0.948042 0.974050 0.898511
P_10 0.741057 0.630962 0.607249 0.519141 0.487082 0.511069
P_10 0.512325 0.487490 0.511147 0.621065 0.701377 0.805583
P_10 0.943417 1.002983 1.098015 1.193349 1.252961 1.295462
P_10 1.312487 1.409369 1.256258 1.281875 1.106313 1.247977
P_10 1.190373 1.165433 1.195521 1.040020 1.027431 1.016297
P_10 0.992178 0.971139 1.102410 1.148358 1.025760 1.208891
P_10 1.064288 1.128386 1.140448 1.126838 1.281388 1.046690
P_10 1.057964 1.140845 1.094672 1.081796 0.888799 0.863573
P_10 0.698510 0.622083 0.638657 0.568143 0.527445 0.515709
P_10 0.524328 0.478520 0.610254 0.672352 0.806581 0.879776
P_10 0.985438 1.080664 1.142782 1.309422 1.351947 1.350387
P_10 1.398189 1.423922 1.442238 1.492482 1.344218 1.441668
P_10 1.320342 1.416819 1.183673 1.115155 1.110753 1.198132
P_10 1.180856 1.125393 1.116146 1.133918 1.217150 1.140856
P_10 1.226772 1.206001 1.145762 1.207962 1.252976 1.184017
P_10 1.071719 1.080850 1.037443 1.006734 0.885135 0.931764
P_10 0.855310 0.764872 0.660161 0.677966 0.597801 0.537709
P_10 0.567934 0.543230 0.544302 0.592484 0.586357 0.688419
P_10 0.732896 0.866745 0.890876 0.999090 1.038082 1.076108
P_10 1.125408 1.222318 1.224440 1.149439 1.275943 1.234847
P_10 1.223680 1.227880 1.276360 1.178576 1.100996 1.181830
P_10 1.114005 1.097739 1.205188 1.132314 1.147648 1.113535
P_10 1.213699 1.071301 1.146186 1.253006 1.102718 1.115643
P_10 1.028480 0.946808 0.887937 0.902697 0.803682 0.756372
P_10 0.726244 0.669282 0.628898 0.583959 0.653806 0.502450
P_10 0.548327 0.525490 0.569985 0.535739 0.505381 0.600927
P_10 0.638970 0.753251 0.795132 0.871977 0.919514 0.942684
P_10 1.058388 1.133443 1.108405 1.173049 1.217885 1.174304
P_10 1.085748 1.106425 1.134136 1.106792 1.129534 1.037678
P_10 1.100223 1.054539 1.075636 1.018507 1.121350 0.932968
P_10 1.047303 1.077871 1.198677 1.155942 1.130412 1.140723
P_10 1.102813 0.986051 0.968791 0.913243 0.877177 0.811192
P_10 0.693373 0.639251 0.590215 0.521699 0.459223 0.465313
P_10 0.511056 0.487005 0.533196 0.653229 0.665663 0.770000
P_10 0.855099 0.995141 1.159518 1.128863 1.265491 1.298991
P_10 1.382998 1.458421 1.521157 1.379287 1.429918 1.432552
P_10 1.406681 1.187274 1.242306 1.095956 1.078595 1.047344
P_10 0.978895 1.019245 0.922409 0.947101 0.952358 0.983417
P_10 1.120038 1.133332 1.164382 1.158600 1.292069 1.234774
P_10 1.174432 1.064188 1.100249 1.042517 0.904546 0.823582
P_10 0.710563 0.670391 0.622567 0.503072 0.512429 0.485669
P_10 0.482891 0.502430 0.646619 0.616251 0.684860 0.775269
P_10 0.823206 0.893825 1.013420 1.146696 1.221318 1.180650
P_10 1.299956 1.212510 1.360305 1.252315 1.228020 1.395248
P_10 1.186126 1.205044 1.192988 1.154396 1.118388 1.070833
P_10 1.035323 1.013374 1.066531 1.086214 1.108941 1.152629
P_10 1.230395 1.257300 1.167605 1.222332 1.220664 1.199692
P_10 1.204854 1.113992 1.039743 0.962373 0.887955 0.862624
P_10 0.779819 0.636172 0.603242 0.530026 0.473236 0.484255
P_10 0.477303 0.531652 0.603991 0.626806 0.742207 0.763109
P_10 0.919286 1.017453 1.037335 1.138458 1.218229 1.268163
P_10 1.403043 1.432509 1.242125 1.273320 1.324487 1.331116
P_10 1.313948 1.274168 1.280482 1.096364 1.146950 1.145756
P_10 1.039543 1.020952 1.175712 1.158359 1.007024 1.128808
P_10 1.175533 1.162816 1.159939 1.217603 1.155744 1.304982
P_10 1.158081 1.144033 1.206734 0.967507 0.914731 0.836289
P_10 0.803766 0.675298 0.579780 0.514514 0.537750 0.531975
P_10 0.446342 0.481272 0.591613 0.611456 0.715410 0.783033
P_10 0.886074 1.084431 1.055770 1.026826 1.297215 1.367610
P_10 1.300546 1.408098 1.344689 1.286772 1.384949 1.309049
P_10 1.138603 1.116981 1.108468 1.198866 1.104881 1.068986
P_10 1.035491 1.064350 1.023692 1.070171 1.113423 1.103827
P_10 1.092724 1.052919 1.159741 1.225838 1.205491 1.276857
P_10 1.223451 1.109157 1.021412 0.959898 0.925190 0.903644
P_10 0.755884 0.679408 0.653993 0.544302 0.528997 0.490920
P_10 0.529775 0.575707 0.589670 0.681127 0.722934 0.959362
P_10 1.085099 1.004863 1.162002 1.357896 1.458320 1.407660
P_10 1.435883 1.529361 1.548821 1.421188 1.335028 1.363211
P_10 1.388628 1.230508 1.320806 1.349869 1.138585 1.151185
P_10 1.031999 1.082054 1.160045 1.104235 1.180373 1.095850
P_10 1.121084 1.373692 1.162789 1.134150 1.199537 1.055165
P_10 1.088677 1.062508 0.965099 0.983659 0.931926 0.841976
P_10 0.843583 0.728855 0.675537 0.560768 0.586831 0.516035