; Filename: networks/Net1.inp
; WNTR: 0.1.6
; Created: 2019-04-09 13:22:09
[TITLE]
EPANET Example Network 1
A simple example of modeling chlorine decay. Both bulk and
wall reactions are included.

[JUNCTIONS]
;ID                      Elevation       Demand Pattern                 
 10                               710               0                            ;
 11                               710               0                            ;
 12                               700               0                            ;
 13                               695               0                            ;
 21                               700               0                            ;
 22                               695               0                            ;
 23                               690               0                            ;
 31                               700               0                            ;
 32                               710               0                            ;

[RESERVOIRS]
;ID                                   Head                  Pattern
 9                                800                            ;

[TANKS]
;ID                              Elevation           Init Level            Min Level            Max Level             Diameter           Min Volume Volume Curve        
 2                                850             120             100             150            50.5               0                        ;

[PIPES]
;ID                   Node1                Node2                              Length             Diameter            Roughness           Minor Loss               Status
 10                   10                   11                             10530              18             100               0                 Open   ;
 11                   11                   12                              5280              14             100               0                 Open   ;
 12                   12                   13                              5280              10             100               0                 Open   ;
 21                   21                   22                              5280              10             100               0                 Open   ;
 22                   22                   23                              5280              12             100               0                 Open   ;
 31                   31                   32                              5280               6             100               0                 Open   ;
 110                  2                    12                               200              18             100               0                 Open   ;
 111                  11                   21                              5280              10             100               0                 Open   ;
 112                  12                   22                              5280              12             100               0                 Open   ;
 113                  13                   23                              5280               8             100               0                 Open   ;
 121                  21                   31                              5280               8             100               0                 Open   ;
 122                  22                   32                              5280               6             100               0                 Open   ;

[PUMPS]
;ID                   Node1                Node2                Properties          
 9                    9                    10                   HEAD     1                      ;

[VALVES]
;ID                   Node1                Node2                            Diameter Type              Setting           Minor Loss

[TAGS]
;type      name       tag       

[DEMANDS]
;ID        Demand     Pattern   
10         0.0        P_10      
11         150.0      P_11      
12         150.0      P_12      
13         100.0      P_13      
21         150.0      P_21      
22         200.0      P_22      
23         150.0      P_23      
31         100.0      P_31      
32         100.0      P_32      

[STATUS]
;ID        Setting   
[PATTERNS]
;ID        Multipliers

1 1.000000 1.200000 1.400000 1.600000 1.400000 1.200000
1 1.000000 0.800000 0.600000 0.400000 0.600000 0.800000

P_10 0.572666 0.461374 0.386320 0.346292 0.320101 0.300472
P_10 0.293437 0.309067 0.360385 0.423398 0.537808 0.665467
P_10 0.748806 0.861649 0.997943 1.085591 1.151179 1.176992
P_10 1.449170 1.337348 1.462461 1.257791 1.328274 1.318327
P_10 1.328543 1.164225 1.134732 1.039804 1.032808 0.992352
P_10 1.026349 0.870406 0.896772 0.876166 0.959839 0.907096
P_10 1.050536 1.030994 1.185248 1.168985 1.184255 1.129506
P_10 1.147659 1.119184 0.884183 0.838647 0.793763 0.808641
P_10 0.666551 0.513463 0.417657 0.392782 0.331238 0.297296
P_10 0.327682 0.341105 0.383313 0.460342 0.478281 0.615496
P_10 0.724979 0.886019 0.942828 1.089846 1.137331 1.218442
P_10 1.268948 1.264793 1.333431 1.295214 1.228175 1.268508
P_10 1.209530 1.101931 1.169986 1.009918 0.967097 1.023912
P_10 0.931427 0.860625 0.948827 1.032514 0.942913 1.030283
P_10 1.061111 1.125632 1.160899 1.131470 1.061363 1.151815
P_10 1.077644 0.938660 0.869006 0.821201 0.775094 0.674568
P_10 0.587211 0.498597 0.447468 0.366439 0.337395 0.296306
P_10 0.349860 0.393371 0.390753 0.492899 0.631022 0.717050
P_10 0.841574 0.959458 0.921770 1.147042 1.183551 1.239887
P_10 1.274483 1.227706 1.279844 1.381804 1.309621 1.279939
P_10 1.192944 1.205491 1.077582 1.145994 1.041238 1.017096
P_10 0.972003 1.047424 0.983202 1.103676 1.047419 1.040638
P_10 1.020805 1.096720 1.154127 1.151062 1.135864 1.141020
P_10 1.066794 1.079364 0.873945 0.856446 0.834178 0.736302
P_10 0.513939 0.505814 0.470341 0.411409 0.315775 0.343537
P_10 0.323025 0.344660 0.435638 0.532559 0.578664 0.697999
P_10 0.862348 0.897790 1.038000 1.010460 1.158733 1.273494
P_10 1.242685 1.331308 1.293487 1.318236 1.313734 1.176034
P_10 1.164369 1.206802 1.152606 1.007181 1.036334 0.958853
P_10 0.921949 0.892892 0.918910 1.118176 0.948419 1.092686
P_10 1.093742 1.086448 1.117923 1.231901 1.129332 1.143190
P_10 1.018105 1.080574 1.027103 0.890962 0.872970 0.641071
P_10 0.671016 0.519499 0.519583 0.457523 0.341119 0.378107
P_10 0.390900 0.377493 0.441255 0.528666 0.587273 0.782353
P_10 0.874552 0.958116 1.159885 1.309072 1.263528 1.507792
P_10 1.521235 1.392078 1.436971 1.470854 1.355060 1.269035
P_10 1.283415 1.356822 1.146898 1.101878 1.074658 1.094415
P_10 0.964739 1.002543 1.022439 0.995017 1.059549 1.076566
P_10 1.073541 1.068923 1.054806 1.030016 1.023827 1.086630
P_10 1.039429 1.030413 0.901564 0.829434 0.767986 0.809709
P_10 0.687806 0.632379 0.530184 0.459857 0.414869 0.391276
P_10 0.394482 0.375277 0.385944 0.428442 0.441503 0.562875
P_10 0.610576 0.754934 0.858507 0.891350 0.962656 1.070042
P_10 1.076473 1.196937 1.295475 1.335936 1.322365 1.119610
P_10 1.208752 1.148767 1.088637 1.017522 1.090737 1.077175
P_10 1.102427 0.992535 1.005115 1.047628 1.101434 1.093781
P_10 1.171039 1.136728 1.008752 1.108946 1.059826 1.010483
P_10 0.911840 0.761421 0.819922 0.727504 0.694880 0.627983
P_10 0.638395 0.558946 0.513173 0.415613 0.452678 0.382866
P_10 0.363997 0.336508 0.326014 0.333599 0.426872 0.446205
P_10 0.488248 0.552229 0.567358 0.662189 0.779438 0.845200
P_10 0.862482 1.042515 1.130061 1.072516 1.193257 1.015763
P_10 1.151857 1.150254 1.145009 1.065580 1.025176 0.987849
P_10 1.051222 0.889587 1.005431 0.944515 0.816787 0.962148
P_10 0.931544 1.046492 0.987406 1.021625 1.016190 0.965436
P_10 0.970876 0.932978 0.928940 0.760551 0.730240 0.631335
P_10 0.533800 0.466793 0.422473 0.358181 0.316652 0.287837
P_10 0.317570 0.360511 0.370960 0.450802 0.526854 0.669403
P_10 0.748030 0.845158 0.985803 1.189062 1.287577 1.265488
P_10 1.335803 1.354183 1.362154 1.448684 1.397148 1.317589
P_10 1.322874 1.175481 1.216932 1.078178 1.090196 0.931759
P_10 0.932207 0.853625 0.829126 0.851324 0.995922 0.922810
P_10 1.029944 1.137833 1.035360 1.064004 1.075739 0.992049
P_10 1.095569 1.073700 0.993048 0.901518 0.843205 0.712461
P_10 0.574468 0.542474 0.462562 0.394902 0.336420 0.284316
P_10 0.308534 0.388586 0.390929 0.459917 0.561570 0.713152
P_10 0.716257 0.900725 0.944376 1.165046 1.121178 1.278215
P_10 1.249463 1.346682 1.359177 1.301404 1.251077 1.115584
P_10 1.213120 1.175131 1.161869 1.025041 1.058634 0.964245
P_10 0.936682 0.891065 0.977739 0.999754 1.023151 1.031803
P_10 1.127253 1.037400 1.088507 1.182407 1.238829 1.209962
P_10 1.240038 1.110899 1.009237 0.862656 0.795272 0.680437
P_10 0.573150 0.502117 0.442471 0.356299 0.366485 0.340320
P_10 0.304097 0.367517 0.387204 0.493661 0.633960 0.713047
P_10 0.799627 0.924809 0.936887 1.129914 1.184555 1.254756
P_10 1.293887 1.295393 1.356238 1.422909 1.203434 1.263403
P_10 1.312134 1.172643 1.152011 1.175852 1.067170 1.046779
P_10 1.102930 1.007135 1.050977 0.976295 1.115851 1.124217
P_10 1.060114 1.066302 1.145591 1.173489 1.132367 1.091122
P_10 1.067490 1.063781 1.012367 0.960213 0.813415 0.736633
P_10 0.716881 0.537469 0.461573 0.417180 0.357391 0.331762
P_10 0.357534 0.345574 0.393486 0.488727 0.584164 0.677935
P_10 0.823168 0.907535 0.909761 1.151629 1.079344 1.229049
P_10 1.186936 1.149809 1.344879 1.252778 1.332785 1.276650
P_10 1.204721 1.189623 1.124011 1.039192 0.989880 0.931216
P_10 0.913239 0.926298 0.976632 0.990561 1.133426 1.035803
P_10 1.088103 1.172827 1.112600 1.039303 1.078805 1.118128
P_10 1.123888 1.071754 1.033652 0.880970 0.807102 0.805374
P_10 0.634189 0.537503 0.468809 0.434961 0.369896 0.373391
P_10 0.350380 0.372230 0.451509 0.558631 0.658742 0.843888
P_10 0.955142 1.078775 1.155945 1.246046 1.389718 1.450952
P_10 1.485588 1.500668 1.548779 1.456139 1.453934 1.379490
P_10 1.281538 1.250491 1.131245 1.163194 1.128133 0.980602
P_10 1.128440 1.067338 1.070029 1.020838 1.007636 1.115323
P_10 1.044661 1.159645 1.155577 1.080469 0.993622 1.110215
P_10 1.053080 1.052523 0.973685 0.908966 0.899232 0.773926
P_10 0.685161 0.591122 0.555884 0.473703 0.428924 0.438392
P_10 0.386275 0.346282 0.389535 0.438890 0.444486 0.562749
P_10 0.635293 0.745510 0.770187 0.894311 0.983885 1.030093
P_10 1.132441 1.204154 1.258245 1.262214 1.226308 1.315537
P_10 1.104807 1.224403 1.202525 1.078378 1.150848 1.162001
P_10 1.137205 1.058962 1.082979 0.992356 1.034483 1.009815
P_10 1.059176 1.109583 1.093554 0.981577 1.096160 1.004624
P_10 0.922117 0.900300 0.825246 0.718992 0.755577 0.670219
P_10 0.614944 0.574356 0.542931 0.479637 0.449649 0.396473
P_10 0.349393 0.343956 0.332213 0.363749 0.383874 0.443046
P_10 0.502171 0.528888 0.652936 0.678690 0.850873 0.900322
P_10 0.969208 0.986422 1.012021 1.132728 1.058577 1.169000
P_10 1.168883 1.078085 1.112819 1.024957 1.004260 0.953963
P_10 0.965739 1.024056 0.979868 0.965420 0.918553 1.007168
P_10 0.984906 1.012142 1.124418 1.011784 1.091250 1.023296
P_10 0.994196 0.988154 0.868017 0.768641 0.755984 0.641903
P_10 0.575543 0.504950 0.434242 0.328432 0.321798 0.317884
P_10 0.309919 0.325146 0.337536 0.426101 0.558455 0.664908
P_10 0.742455 0.890065 1.016064 1.019317 1.169022 1.367213
P_10 1.314095 1.439785 1.497623 1.447955 1.398363 1.396383
P_10 1.264535 1.223416 1.209303 1.045825 1.063680 0.953838
P_10 0.936634 0.920594 0.862437 0.988795 0.918863 0.975058
P_10 1.022596 1.120227 1.164827 1.144360 1.126241 1.109945
P_10 1.058321 1.026480 1.044914 0.937831 0.770390 0.686743
P_10 0.621308 0.563571 0.438495 0.367286 0.321964 0.310199
P_10 0.320756 0.372017 0.426317 0.506642 0.577610 0.696973
P_10 0.771291 0.886011 0.999959 1.110994 1.169582 1.110870
P_10 1.238282 1.199355 1.375816 1.317109 1.267791 1.244570
P_10 1.220597 1.192053 1.087773 1.096003 0.993574 0.930364
P_10 0.938098 1.001395 0.872958 1.021949 0.989899 1.049774
P_10 1.086140 1.056931 1.197947 1.255400 1.212060 1.131338
P_10 1.076588 0.977679 1.107594 0.918452 0.842424 0.680134
P_10 0.600079 0.525052 0.490120 0.363334 0.322815 0.301946
P_10 0.367710 0.336609 0.445733 0.506349 0.653176 0.722963
P_10 0.795635 0.903939 1.047374 1.173918 1.247266 1.218183
P_10 1.248313 1.422658 1.275424 1.288498 1.311734 1.321870
P_10 1.348153 1.358845 1.163638 1.185814 1.113059 1.140527
P_10 1.045946 1.007600 1.101563 1.065525 1.134147 1.151595
P_10 1.030315 1.131474 1.122953 1.127093 1.189404 1.279106
P_10 1.057342 1.006904 0.939765 0.873789 0.761960 0.755712
P_10 0.618146 0.538294 0.461700 0.387964 0.357555 0.304909
P_10 0.297009 0.370968 0.447520 0.507283 0.633878 0.741376
P_10 0.849812 0.942162 1.122855 1.121607 1.216041 1.271770
P_10 1.414712 1.374936 1.450884 1.323123 1.280483 1.360055
P_10 1.280075 1.152727 1.109311 1.073107 1.006227 0.924998
P_10 1.022872 0.941111 0.979473 1.039139 1.091732 0.987845
P_10 1.094491 1.086309 1.103623 1.129206 1.202518 1.190655
P_10 1.078055 1.006648 1.037507 0.868859 0.929095 0.785670
P_10 0.639134 0.526102 0.531321 0.450299 0.355119 0.340051
P_10 0.375769 0.385763 0.461186 0.526438 0.670137 0.781974
P_10 0.993345 1.137548 1.273303 1.341085 1.510173 1.344159
P_10 1.555699 1.634444 1.605392 1.464860 1.435090 1.404941
P_10 1.320731 1.301604 1.181819 1.099958 1.095148 1.183300
P_10 1.023478 1.048273 1.125901 1.090504 1.123386 1.125853
P_10 1.045671 1.092517 0.981080 1.125093 1.104444 1.153634
P_10 1.091481 1.019401 0.986364 0.972300 0.851664 0.692253
P_10 0.708597 0.615195 0.538252 0.475543 0.438669 0.429638
P_10 0.366021 0.407907 0.403302 0.438045 0.487355 0.548804
P_10 0.606568 0.746271 0.770940 0.883664 0.961322 1.072953
P_10 1.164159 1.259960 1.241531 1.232067 1.361676 1.288432
P_10 1.198390 1.269777 1.138594 1.096446 1.058645 1.111476
P_10 1.007601 1.022462 1.124491 1.184634 1.151748 1.152083
P_10 1.125293 1.105801 1.019665 1.041530 0.986682 1.014846
P_10 0.923277 0.874282 0.930327 0.818220 0.702345 0.632083
P_10 0.606252 0.581796 0.485605 0.435526 0.421730 0.403007
P_10 0.364257 0.401398 0.366692 0.402114 0.400369 0.422714
P_10 0.480363 0.572823 0.634219 0.831503 0.827950 0.949156
P_10 0.909365 1.130213 1.111887 1.176443 1.095570 1.204677
P_10 1.181738 1.089258 0.975429 1.149885 1.002655 1.047360
P_10 0.991335 1.001418 0.894549 0.958069 1.038059 1.016956
P_10 1.003367 1.048860 1.028598 1.059895 1.062849 1.099292
P_10 1.052883 0.882427 0.899820 0.925914 0.762834 0.691580
P_10 0.543180 0.552419 0.435236 0.364265 0.309173 0.324366
P_10 0.301691 0.313067 0.411998 0.474734 0.547592 0.693976
P_10 0.769244 0.825368 0.937806 1.175189 1.272665 1.350402
P_10 1.432974 1.399643 1.383897 1.476358 1.349288 1.435104
P_10 1.338122 1.111484 1.168922 1.165152 1.028700 1.023305
P_10 0.928927 0.875402 0.962855 0.976478 0.966310 1.066277
P_10 1.022330 1.152234 1.037678 1.281291 1.266491 1.125452
P_10 1.168237 1.041558 1.019070 0.920236 0.826006 0.642573
P_10 0.706071 0.511392 0.449995 0.390574 0.353596 0.300726
P_10 0.339366 0.344254 0.395839 0.480401 0.503117 0.723263
P_10 0.714925 0.861076 1.052170 1.073557 1.235859 1.230708
P_10 1.298797 1.440644 1.319166 1.293562 1.291564 1.181610
P_10 1.196300 1.221481 1.136875 1.125256 1.062521 0.971920
P_10 0.973364 0.985609 0.969428 0.898823 1.061337 0.936561
P_10 1.156938 1.050948 1.144924 1.231390 1.184818 1.267463
P_10 1.125179 1.058062 0.987787 0.967411 0.862295 0.683141
P_10 0.647856 0.569959 0.453520 0.381233 0.373667 0.341728
P_10 0.341006 0.398096 0.454111 0.520965 0.627492 0.723626
P_10 0.830892 0.943643 0.970718 1.244144 1.238654 1.323007
P_10 1.339065 1.357132 1.390257 1.304463 1.260918 1.417434
P_10 1.415681 1.231555 1.312257 1.214713 1.044854 1.065717
P_10 1.046148 1.070990 1.097522 1.109025 1.051102 1.113836
P_10 1.179328 1.215063 1.140654 1.206486 1.119514 1.073465
P_10 1.142919 1.037484 1.041796 0.897982 0.864588 0.713346
P_10 0.625286 0.541097 0.470239 0.398063 0.379573 0.293962
P_10 0.325828 0.365099 0.416611 0.499408 0.589994 0.749175
P_10 0.907201 0.965101 1.180194 1.184571 1.268684 1.328200
P_10 1.444760 1.384169 1.286592 1.427900 1.314974 1.343552
P_10 1.208335 1.260719 1.199925 1.013049 1.009691 0.972280
P_10 1.044240 1.041652 1.046953 1.062182 1.063894 1.129869
P_10 1.181086 1.226527 1.146820 1.126060 1.204767 1.241513
P_10 1.137381 1.123230 1.018828 0.975997 0.888990 0.870662
P_10 0.714921 0.570223 0.480697 0.444143 0.409804 0.335859
P_10 0.396955 0.435281 0.480316 0.562855 0.693312 0.746498
P_10 0.968099 1.107361 1.218186 1.357008 1.315315 1.543784
P_10 1.533696 1.586926 1.711878 1.503457 1.588547 1.478089
P_10 1.413973 1.315226 1.342817 1.159414 1.123587 1.126699
P_10 1.083879 1.056791 1.130787 1.080222 1.178719 1.028201
P_10 1.145673 1.198495 1.099085 1.160602 1.173976 1.179185
P_10 1.067327 1.000677 0.954091 0.942447 0.759281 0.794543
P_10 0.696142 0.648463 0.581716 0.473754 0.467783 0.454671
P_10 0.387342 0.373877 0.405708 0.460728 0.514589 0.612819
P_10 0.654391 0.837694 0.874390 0.979183 1.027350 1.132663
P_10 1.108115 1.212052 1.353337 1.353762 1.357005 1.258501
P_10 1.278613 1.281358 1.230664 1.173309 1.245125 1.120383
P_10 1.091883 1.091509 1.091969 1.102555 1.163317 1.039885
P_10 1.115063 1.096288 1.089022 0.988343 1.069033 0.936526
P_10 0.971965 0.877970 0.867508 0.754900 0.779548 0.611877
P_10 0.636001 0.602816 0.511110 0.511263 0.445828 0.360559
P_10 0.384010 0.372503 0.379357 0.399306 0.423677 0.481951
P_10 0.532991 0.578953 0.670994 0.775332 0.780082 0.886481
P_10 0.937775 1.032882 1.059191 1.244010 1.160714 1.260400
P_10 1.220803 1.238708 1.121034 1.129290 1.056519 1.100906
P_10 0.963765 0.931879 0.939007 0.914417 0.955100 1.047562
P_10 1.104056 1.037986 1.002724 1.125427 1.005167 1.062192
P_10 1.012108 1.013500 0.892257 0.860058 0.788764 0.648713
P_10 0.541946 0.509972 0.402562 0.402950 0.307815 0.318129
P_10 0.335921 0.359388 0.404728 0.451849 0.514879 0.683520
P_10 0.817327 0.943783 0.994711 1.159582 1.242691 1.373719
P_10 1.334904 1.499491 1.523165 1.476151 1.313612 1.417357
P_10 1.258966 1.241996 1.254339 1.125976 1.052713 1.060730
P_10 0.961848 0.873667 0.950011 0.927759 1.019494 1.043578
P_10 1.129195 1.082962 1.134136 1.123469 1.187549 1.182504
P_10 1.220777 1.063622 1.073879 0.911938 0.850413 0.730691
P_10 0.609966 0.540409 0.515043 0.433355 0.337410 0.332597
P_10 0.307957 0.321996 0.422314 0.488288 0.572527 0.630378
P_10 0.772328 0.966935 1.011256 1.178208 1.296952 1.294858
P_10 1.304243 1.367200 1.489226 1.385064 1.358410 1.298944
P_10 1.326006 1.313345 1.227433 1.125385 1.062919 1.147224
P_10 1.056335 0.994491 1.084288 1.010274 1.126502 1.141261
P_10 1.022620 1.155218 1.266406 1.257249 1.183534 1.195159
P_10 1.310181 1.156350 0.963186 0.852717 0.899845 0.776826
P_10 0.663104 0.529236 0.489137 0.427080 0.338551 0.339868
P_10 0.336602 0.390087 0.482888 0.529442 0.624654 0.793045
P_10 0.835419 1.008168 1.009917 1.138615 1.329790 1.237511
P_10 1.359115 1.423649 1.368605 1.413693 1.332648 1.377458
P_10 1.251393 1.336447 1.315690 1.132407 1.221932 1.157539
P_10 1.199880 1.060961 1.086448 1.022612 1.155428 1.161583
P_10 1.167801 1.167198 1.169841 1.339137 1.245491 1.262921
P_10 1.176662 1.129392 1.059220 0.991613 0.859372 0.762192
P_10 0.655911 0.625919 0.490026 0.424651 0.380950 0.313622
P_10 0.348602 0.400773 0.442701 0.510171 0.647273 0.749830
P_10 0.836846 0.926950 1.117016 1.273043 1.316289 1.358266
P_10 1.371328 1.373164 1.425321 1.284817 1.188208 1.312320
P_10 1.313138 1.141764 1.159958 1.047638 1.148556 1.143350
P_10 0.967571 1.113872 0.975211 1.075987 1.146322 0.992105
P_10 1.115616 1.275994 1.182005 1.230471 1.228692 1.165040
P_10 1.214220 1.120328 1.144554 0.932166 0.994586 0.801152
P_10 0.734059 0.596662 0.518328 0.467742 0.356417 0.365799
P_10 0.348404 0.405186 0.433560 0.584775 0.691565 0.786249
P_10 0.936378 1.084740 1.241491 1.354412 1.433726 1.470162
P_10 1.622279 1.555320 1.564756 1.748093 1.611339 1.350975
P_10 1.405782 1.327599 1.265928 1.221245 1.091765 1.034081
P_10 1.192253 1.163740 1.152978 1.127789 1.182773 1.123239
P_10 1.086324 1.173703 1.197826 1.240726 1.110015 1.169825
P_10 1.113222 1.098821 1.045354 1.000346 0.930485 0.832556
P_10 0.698169 0.693848 0.577734 0.447646 0.514610 0.429838
P_10 0.368282 0.388609 0.410919 0.411986 0.504651 0.603126
P_10 0.647460 0.771710 0.812363 0.974176 1.057015 1.262204
P_10 1.193294 1.289893 1.262021 1.455140 1.366226 1.349683
P_10 1.212060 1.299312 1.250711 1.220610 1.288532 1.260331
P_10 1.101865 1.113787 1.238528 1.064972 1.210831 1.128515
P_10 1.155556 1.164994 1.110373 1.037946 1.035722 0.915603
P_10 1.004849 0.927850 0.883748 0.852001 0.710070 0.617166
P_10 0.609932 0.580118 0.507178 0.497130 0.462760 0.425784
P_10 0.381426 0.393810 0.417396 0.411109 0.458486 0.500094
P_10 0.569986 0.615854 0.697767 0.751122 0.844289 0.903768
P_10 1.061017 0.970097 1.170003 1.193620 1.103583 1.193172
P_10 1.135509 1.129767 1.107114 1.132345 1.115585 1.029796
P_10 0.936788 0.974971 1.047890 0.977566 1.048534 1.007064
P_10 1.049937 1.143136 1.094452 1.136377 1.164130 1.075351
P_10 1.078848 1.047338 0.927629 0.925596 0.708235 0.663224
P_10 0.614661 0.524869 0.446374 0.385618 0.346582 0.341941
P_10 0.337735 0.357347 0.418416 0.461875 0.651414 0.708284
P_10 0.815928 0.865481 1.048204 1.221004 1.223188 1.365644
P_10 1.411597 1.511764 1.619385 1.479590 1.460616 1.526904
P_10 1.378765 1.281947 1.190417 1.228545 1.188276 1.052891
P_10 0.943135 0.944916 0.921580 1.007883 1.050572 1.039581
P_10 1.050854 1.155384 1.122397 1.316075 1.217421 1.165459
P_10 1.174036 1.057514 1.058542 0.972107 0.907514 0.734756
P_10 0.677952 0.521821 0.437728 0.386431 0.374066 0.329226
P_10 0.348992 0.386295 0.408214 0.458767 0.560937 0.715650
P_10 0.823564 0.900225 1.138152 1.245723 1.229511 1.260541
P_10 1.482009 1.475717 1.505225 1.393222 1.394815 1.314699
P_10 1.343556 1.319459 1.295972 1.265814 1.123934 1.125490
P_10 1.013078 0.881335 1.020244 0.924906 1.007515 1.132392
P_10 1.096532 1.088838 1.275799 1.304958 1.258928 1.287430
P_10 1.245597 1.132210 1.061244 0.968285 0.897600 0.782037
P_10 0.661818 0.555367 0.487153 0.411298 0.387733 0.336376
P_10 0.350511 0.411729 0.506550 0.543741 0.692495 0.760060
P_10 0.895276 0.945587 1.088866 1.179394 1.299950 1.257361
P_10 1.452349 1.467048 1.486456 1.376427 1.344085 1.354658
P_10 1.422699 1.342815 1.216012 1.121376 1.307526 1.128987
P_10 1.019958 1.113908 1.111554 1.174217 1.063909 1.158642
P_10 1.144052 1.187594 1.231229 1.077143 1.285973 1.122168
P_10 1.240328 1.095760 1.128743 0.889558 0.872803 0.823200
P_10 0.684598 0.614700 0.506245 0.429148 0.375366 0.354601
P_10 0.350748 0.372809 0.457967 0.506187 0.610603 0.775693
P_10 0.862753 1.033757 1.210066 1.154981 1.365233 1.413675
P_10 1.435906 1.415444 1.468787 1.420973 1.416183 1.325552
P_10 1.310960 1.304949 1.170590 1.209626 1.063072 1.144564
P_10 0.968430 1.061307 1.114389 1.070659 1.168354 1.027406
P_10 1.216721 1.327149 1.151861 1.173585 1.186680 1.292530
P_10 1.059961 1.293310 1.134544 1.013072 0.944668 0.820903
P_10 0.728697 0.651741 0.507012 0.425799 0.401146 0.420387
P_10 0.406050 0.417080 0.489043 0.634326 0.740051 0.872748
P_10 0.982424 1.130356 1.309468 1.356168 1.421907 1.680863
P_10 1.417045 1.551831 1.537093 1.561846 1.512626 1.363788
P_10 1.499541 1.464972 1.276636 1.296905 1.221693 1.123355
P_10 1.271733 1.092340 1.096359 1.148128 1.168618 1.183226
P_10 1.070136 1.283221 1.141713 1.186762 1.148372 1.104240
P_10 1.024281 1.104000 0.987841 0.978476 0.906279 0.810266
P_10 0.713208 0.658960 0.560359 0.524769 0.490591 0.438018
P_10 0.408361 0.409323 0.426241 0.447425 0.564213 0.545502
P_10 0.706502 0.806807 0.868344 0.958455 1.058022 1.195231
P_10 1.162122 1.267695 1.319602 1.391924 1.513481 1.250878
P_10 1.310608 1.178774 1.243222 1.146822 1.177956 1.022414
P_10 1.273939 1.193141 1.203483 1.292209 1.165945 1.228568
P_10 1.102265 1.145569 1.150693 1.198593 1.173393 1.031033
P_10 0.976194 0.947860 0.851838 0.792397 0.773201 0.725599
P_10 0.671830 0.586222 0.529216 0.458435 0.445195 0.447834
P_10 0.392100 0.366640 0.399444 0.419104 0.407129 0.455934
P_10 0.562749 0.581024 0.695076 0.746648 0.822850 0.977226
P_10 1.009198 1.077832 1.222179 1.190092 1.148894 1.286591
P_10 1.076209 1.203240 1.099183 1.132450 1.090110 1.089851
P_10 0.981675 1.003416 0.900447 1.101162 1.081188 1.012054
P_10 1.098201 1.143509 1.216145 1.104926 1.166193 1.193573
P_10 1.138901 0.978106 1.003037 0.917342 0.842795 0.688369
P_10 0.660639 0.514527 0.466420 0.388877 0.347663 0.337528
P_10 0.330052 0.373862 0.414135 0.524304 0.603758 0.732806
P_10 0.818953 0.940274 1.147049 1.179131 1.405446 1.371034
P_10 1.449517 1.550602 1.492426 1.458795 1.558364 1.489428
P_10 1.313918 1.270655 1.250321 1.141930 1.177624 1.031698
P_10 0.996398 0.981281 0.921114 1.077853 0.984485 1.026999
P_10 1.123271 1.104095 1.169383 1.192279 1.099270 1.245445
P_10 1.236374 1.110801 1.182902 1.013472 0.873891 0.777056
P_10 0.636231 0.565895 0.500003 0.412257 0.356363 0.361311
P_10 0.366042 0.384116 0.469627 0.541547 0.590995 0.689408
P_10 0.914760 0.983801 1.032787 1.292619 1.265961 1.298277
P_10 1.376498 1.454080 1.501543 1.261867 1.445106 1.384987
P_10 1.369574 1.280651 1.223494 1.238268 1.080840 0.998596
P_10 1.113230 1.113896 0.982222 1.038138 1.112625 1.158829
P_10 1.228429 1.124183 1.220846 1.285413 1.301923 1.276555
P_10 1.159491 1.092282 1.087285 0.964465 0.829787 0.835321
P_10 0.648688 0.537897 0.483813 0.371385 0.353660 0.349091
P_10 0.362769 0.408299 0.448004 0.566796 0.725969 0.821434
P_10 0.923728 1.003231 1.193643 1.161731 1.292822 1.421961
P_10 1.579111 1.392544 1.410394 1.515312 1.315464 1.370528
P_10 1.396087 1.244079 1.285332 1.294973 1.222461 1.224509
P_10 1.191124 1.135432 1.039359 1.242579 1.141399 1.193259
P_10 1.207186 1.136225 1.163088 1.221188 1.282237 1.211826
P_10 1.191785 1.146542 1.067867 1.051954 0.988141 0.795343
P_10 0.695669 0.570734 0.494934 0.404472 0.377080 0.342829
P_10 0.349162 0.390181 0.427212 0.531200 0.628585 0.679019
P_10 0.924932 1.119063 1.071323 1.272964 1.190739 1.265902
P_10 1.493607 1.377378 1.527572 1.449643 1.468609 1.297452
P_10 1.335171 1.178455 1.173208 1.091036 1.178205 1.158140
P_10 1.070083 1.065708 1.108563 1.150835 1.060771 1.217395
P_10 1.277406 1.145225 1.322620 1.253947 1.175980 1.286687
P_10 1.176622 1.204898 1.111200 1.079270 0.943517 0.789981
P_10 0.742965 0.603223 0.505759 0.454787 0.411180 0.407761
P_10 0.408325 0.409998 0.503841 0.553359 0.725979 0.869155
P_10 1.150874 1.192244 1.244198 1.434337 1.459664 1.508556
P_10 1.608909 1.769600 1.674893 1.666289 1.718071 1.591931
P_10 1.526240 1.407230 1.348647 1.213906 1.182235 1.130208
P_10 1.070439 1.081715 1.218069 1.260026 1.150473 1.188144
P_10 1.101703 1.211330 1.146461 1.283084 1.380795 1.243098
P_10 1.166155 1.169568 0.974579 0.992254 0.854200 0.883538
P_10 0.817635 0.717621 0.643040 0.564015 0.458460 0.434252
P_10 0.444192 0.370942 0.419859 0.468514 0.573739 0.596076
P_10 0.631851 0.822427 0.953717 1.080585 1.109730 1.176377
P_10 1.225981 1.294962 1.277185 1.417284 1.340964 1.472761
P_10 1.344433 1.316771 1.263586 1.270857 1.197401 1.141680
P_10 1.238706 1.182161 1.158535 1.067710 1.189457 1.265684
P_10 1.236558 1.288590 1.166749 1.036698 1.157806 1.056045
P_10 0.918450 0.995555 1.018067 0.814308 0.790733 0.736088
P_10 0.632223 0.563477 0.482117 0.498026 0.506861 0.402714
P_10 0.422331 0.407926 0.389753 0.380123 0.468898 0.536434
P_10 0.534899 0.592408 0.739466 0.817999 0.879651 1.025303
P_10 1.105860 1.109344 1.203644 1.264757 1.309421 1.251702
P_10 1.249081 1.267582 1.262253 1.157990 1.147888 1.068061
P_10 1.043147 1.020881 1.022309 1.037155 1.178133 1.175381
P_10 1.022243 1.210456 1.103655 1.181599 1.162080 1.072369
P_10 1.061749 1.040441 0.960753 0.959061 0.872229 0.709188
P_10 0.632988 0.559004 0.464626 0.403162 0.350697 0.342659
P_10 0.342854 0.373452 0.441524 0.444008 0.599369 0.743056
P_10 0.877143 1.036691 1.129312 1.176524 1.345788 1.456199
P_10 1.434992 1.564852 1.437896 1.513715 1.436674 1.500144
P_10 1.563745 1.337875 1.277752 1.255824 1.107214 1.143112
P_10 0.996666 0.897419 0.931800 0.913860 0.922110 1.091379
P_10 1.159741 1.155801 1.230773 1.276652 1.180531 1.339969
P_10 1.127570 1.164821 1.136800 0.950483 0.948910 0.833689
P_10 0.667799 0.541236 0.478660 0.425061 0.393176 0.332199
P_10 0.375538 0.355462 0.450665 0.541450 0.666592 0.717812
P_10 0.825585 0.947975 1.093697 1.138617 1.244869 1.452292
P_10 1.456533 1.543168 1.511194 1.587475 1.473226 1.399817
P_10 1.278212 1.263335 1.292974 1.147811 1.221387 1.081346
P_10 1.045435 1.090533 1.045036 1.115845 1.146635 1.239006
P_10 1.186660 1.243446 1.204441 1.274323 1.267762 1.316052
P_10 1.223223 1.275258 1.002762 1.158201 0.940283 0.826947
P_10 0.682080 0.562704 0.470700 0.430076 0.374353 0.380604
P_10 0.364760 0.459996 0.489133 0.493745 0.681249 0.833044
P_10 0.910719 0.979434 1.168874 1.320507 1.394589 1.392489
P_10 1.374218 1.489239 1.560159 1.416944 1.481680 1.426177
P_10 1.375091 1.264852 1.335974 1.307263 1.287626 1.233587
P_10 1.226855 1.196635 1.224286 1.083729 1.165070 1.136008
P_10 1.120977 1.188361 1.177886 1.169587 1.276818 1.186741
P_10 1.240805 1.266357 1.196218 1.009315 0.903480 0.812875
P_10 0.717400 0.623173 0.489111 0.413828 0.379858 0.333498
P_10 0.364865 0.431429 0.446738 0.566144 0.661889 0.780717
P_10 0.884316 1.145123 1.127445 1.196185 1.321931 1.453449
P_10 1.434568 1.503157 1.460643 1.357553 1.353943 1.306089
P_10 1.294507 1.296607 1.235943 1.222591 1.129548 1.123091
P_10 1.093105 0.980436 1.006531 1.013136 1.044655 1.148342
P_10 1.173283 1.256105 1.283612 1.203503 1.296140 1.227821
P_10 1.128957 1.064796 1.146490 1.012929 0.928451 0.809555
P_10 0.712483 0.668624 0.561263 0.497193 0.405044 0.391255
P_10 0.414665 0.452120 0.463207 0.624619 0.779559 0.935511
P_10 1.070507 1.214395 1.278438 1.587947 1.472051 1.669007
P_10 1.773709 1.647685 1.779486 1.652303 1.627758 1.423971
P_10 1.429783 1.440676 1.264193 1.319088 1.236843 1.222485
P_10 1.146472 1.139087 1.196366 1.230025 1.223799 1.284687
P_10 1.235537 1.205105 1.220010 1.326349 1.190322 1.273222
P_10 1.172884 1.200141 1.059099 0.958714 0.894855 0.798850
P_10 0.765696 0.676101 0.554616 0.568977 0.468987 0.468004