; Filename: networks/Net1.inp
; WNTR: 0.1.6
; Created: 2019-04-09 13:09:42
[TITLE]
EPANET Example Network 1
A simple example of modeling chlorine decay. Both bulk and
wall reactions are included.

[JUNCTIONS]
;ID                      Elevation       Demand Pattern                 
 10                               710               0                            ;
 11                               710               0                            ;
 12                               700               0                            ;
 13                               695               0                            ;
 21                               700               0                            ;
 22                               695               0                            ;
 23                               690               0                            ;
 31                               700               0                            ;
 32                               710               0                            ;

[RESERVOIRS]
;ID                                   Head                  Pattern
 9                                800                            ;

[TANKS]
;ID                              Elevation           Init Level            Min Level            Max Level             Diameter           Min Volume Volume Curve        
 2                                850             120             100             150            50.5               0                        ;

[PIPES]
;ID                   Node1                Node2                              Length             Diameter            Roughness           Minor Loss               Status
 10                   10                   11                             10530              18             100               0                 Open   ;
 11                   11                   12                              5280              14             100               0                 Open   ;
 12                   12                   13                              5280              10             100               0                 Open   ;
 21                   21                   22                              5280              10             100               0                 Open   ;
 22                   22                   23                              5280              12             100               0                 Open   ;
 31                   31                   32                              5280               6             100               0                 Open   ;
 110                  2                    12                               200              18             100               0                 Open   ;
 111                  11                   21                              5280              10             100               0                 Open   ;
 112                  12                   22                              5280              12             100               0                 Open   ;
 113                  13                   23                              5280               8             100               0                 Open   ;
 121                  21                   31                              5280               8             100               0                 Open   ;
 122                  22                   32                              5280               6             100               0                 Open   ;

[PUMPS]
;ID                   Node1                Node2                Properties          
 9                    9                    10                   HEAD     1                      ;

[VALVES]
;ID                   Node1                Node2                            Diameter Type              Setting           Minor Loss

[TAGS]
;type      name       tag       

[DEMANDS]
;ID        Demand     Pattern   
10         0.0        P_10      
11         150.0      P_11      
12         150.0      P_12      
13         100.0      P_13      
21         150.0      P_21      
22         200.0      P_22      
23         150.0      P_23      
31         100.0      P_31      
32         100.0      P_32      

[STATUS]
;ID        Setting   
[PATTERNS]
;ID        Multipliers

1 1.000000 1.200000 1.400000 1.600000 1.400000 1.200000
1 1.000000 0.800000 0.600000 0.400000 0.600000 0.800000

P_10 0.540310 0.491797 0.401046 0.394440 0.359778 0.346467
P_10 0.327687 0.357602 0.413369 0.480522 0.567777 0.656697
P_10 0.776597 0.796250 0.972840 1.150273 1.104373 1.093876
P_10 1.276791 1.371305 1.250283 1.406998 1.373075 1.295214
P_10 1.219537 1.173776 1.105926 1.057016 0.919078 0.926681
P_10 0.861487 0.880460 0.915426 0.961925 0.871963 1.020154
P_10 0.944610 1.090697 0.985100 1.078913 1.116803 1.088743
P_10 1.104686 1.060955 0.890036 0.856001 0.745190 0.754404
P_10 0.602344 0.537439 0.472896 0.411979 0.374969 0.367041
P_10 0.373503 0.332760 0.397129 0.411114 0.598946 0.654244
P_10 0.726524 0.808862 0.914090 1.046915 1.169140 1.174788
P_10 1.203882 1.312554 1.312725 1.180728 1.167076 1.214960
P_10 1.240230 1.164411 1.020502 0.903425 0.898445 0.894256
P_10 0.922241 0.867648 0.945098 0.961545 1.009859 1.083929
P_10 1.079635 1.099555 1.037231 1.048647 1.077696 1.164401
P_10 1.118526 1.071929 0.904254 0.768208 0.784361 0.669875
P_10 0.652397 0.564191 0.434184 0.370654 0.331396 0.321730
P_10 0.373641 0.353762 0.409784 0.488643 0.559933 0.708696
P_10 0.821421 0.848834 0.980191 0.972009 1.071692 1.169196
P_10 1.225703 1.325879 1.218747 1.216916 1.149898 1.265485
P_10 1.205071 1.040006 1.069016 1.082046 1.031615 1.045788
P_10 0.982584 0.895281 1.012219 1.023979 1.050206 1.156442
P_10 1.060355 1.119506 1.118422 1.107704 1.140514 1.018695
P_10 1.080409 1.019199 0.936832 0.870745 0.821396 0.775038
P_10 0.600136 0.559739 0.422369 0.371851 0.311966 0.341585
P_10 0.345261 0.371061 0.426869 0.483757 0.612495 0.712043
P_10 0.755593 0.842066 0.903644 1.025100 1.173117 1.167572
P_10 1.229387 1.253459 1.256241 1.194411 1.210598 1.082586
P_10 1.142295 1.094754 1.095623 1.062783 0.916569 0.948945
P_10 0.896649 0.903377 0.971073 1.033577 0.935490 1.054766
P_10 0.974234 1.157430 1.121717 1.109280 1.068844 1.098006
P_10 1.094836 1.009018 0.922074 0.893940 0.800331 0.717757
P_10 0.691907 0.550100 0.485008 0.432564 0.357854 0.313888
P_10 0.387093 0.417266 0.476130 0.567691 0.665581 0.802412
P_10 0.856389 1.068705 1.054672 1.204046 1.344038 1.346513
P_10 1.403909 1.489814 1.472286 1.550223 1.374416 1.253906
P_10 1.259991 1.185404 1.208811 1.074098 0.975685 1.006081
P_10 1.020066 1.082008 1.058339 0.973194 1.079607 0.983593
P_10 1.086968 1.003859 1.069705 1.051446 1.094552 1.070756
P_10 0.968798 1.033217 0.913427 0.881259 0.772473 0.757711
P_10 0.741424 0.588688 0.493578 0.479962 0.451792 0.402283
P_10 0.367194 0.374549 0.380839 0.416868 0.496201 0.506303
P_10 0.684165 0.730238 0.786752 0.873247 1.031785 1.092090
P_10 1.110654 1.184645 1.114546 1.103045 1.217801 1.107014
P_10 1.110341 1.098114 1.009176 0.983665 1.082602 1.124403
P_10 0.953011 1.026855 0.986952 1.047581 1.100919 1.022274
P_10 1.023351 1.176142 1.072946 1.115092 1.011382 0.935249
P_10 0.961090 0.852110 0.813759 0.748979 0.746021 0.610189
P_10 0.564742 0.549453 0.489410 0.462608 0.454183 0.387772
P_10 0.395309 0.369040 0.383886 0.407132 0.423418 0.462692
P_10 0.549523 0.603337 0.592486 0.725169 0.825896 0.888650
P_10 0.981970 0.870922 0.947085 1.083463 1.044231 1.136169
P_10 1.107405 1.078925 1.051328 0.984289 0.931633 0.911532
P_10 0.976182 0.949206 0.890099 0.855070 0.991087 0.929064
P_10 0.881736 0.992257 0.996266 1.032052 0.994982 1.032746
P_10 0.997703 0.916993 0.817965 0.917606 0.708980 0.712764
P_10 0.568863 0.491714 0.455780 0.401441 0.327878 0.321750
P_10 0.332993 0.376337 0.390309 0.506458 0.535596 0.687654
P_10 0.774571 0.887522 0.955103 0.958480 1.130966 1.184203
P_10 1.266777 1.338397 1.390535 1.397633 1.201802 1.179170
P_10 1.307887 1.153418 1.089429 1.005099 0.961147 0.973363
P_10 0.874948 0.846527 0.890599 0.870289 0.924391 0.971021
P_10 1.032911 0.923630 1.035875 1.112317 1.232106 0.995772
P_10 1.123722 1.033576 0.972007 0.891764 0.854722 0.755399
P_10 0.633310 0.583906 0.482646 0.410575 0.334413 0.326889
P_10 0.305587 0.350381 0.420393 0.506650 0.588318 0.640328
P_10 0.710996 0.847482 0.971815 1.001231 1.092412 1.215540
P_10 1.263092 1.327349 1.264983 1.305401 1.161674 1.213305
P_10 1.037389 1.074770 1.101080 0.988234 0.985195 0.905433
P_10 0.963814 0.920938 0.960321 0.907657 1.030434 0.974260
P_10 1.017791 1.081439 1.062971 1.115278 1.194751 1.104204
P_10 1.162402 1.095574 0.956981 0.789900 0.735904 0.688202
P_10 0.619619 0.488616 0.442970 0.398110 0.338944 0.361418
P_10 0.338818 0.405475 0.430509 0.527608 0.563088 0.688787
P_10 0.833828 0.876327 0.962954 1.085593 1.180037 1.292079
P_10 1.232539 1.221320 1.281588 1.246127 1.268678 1.235436
P_10 1.185708 1.232404 1.110436 1.000973 0.972161 1.145242
P_10 0.928408 1.006816 0.978880 0.975979 0.982501 1.063222
P_10 1.116969 1.069885 1.110150 1.097592 1.067068 1.092640
P_10 1.052632 0.976603 0.864073 0.944723 0.756200 0.647603
P_10 0.659300 0.518031 0.458503 0.395090 0.336742 0.366330
P_10 0.338710 0.363641 0.475971 0.507981 0.561178 0.663267
P_10 0.786452 0.946993 1.004648 1.128954 1.205617 1.146565
P_10 1.188085 1.249232 1.303036 1.185539 1.223712 1.193453
P_10 1.049087 1.144315 1.048464 0.940314 0.998487 0.942456
P_10 0.850026 0.889341 0.961105 0.992184 1.008572 1.034790
P_10 1.112101 1.108318 1.151353 1.142316 1.218184 1.116987
P_10 1.037814 1.092471 1.019013 0.875321 0.874253 0.648280
P_10 0.623220 0.592690 0.458747 0.419140 0.372136 0.341629
P_10 0.391596 0.382242 0.486111 0.527686 0.613481 0.725654
P_10 1.003285 0.995179 1.168242 1.227224 1.371188 1.454851
P_10 1.482882 1.422112 1.496737 1.415369 1.393026 1.381383
P_10 1.111511 1.143951 1.190768 1.110423 1.101281 1.000606
P_10 0.934088 1.042171 0.999800 1.129190 1.010066 1.085708
P_10 1.129884 1.061664 1.171710 1.050222 1.121832 1.055953
P_10 1.072314 1.007805 0.892598 0.807354 0.813040 0.798361
P_10 0.712235 0.562949 0.500754 0.468767 0.414336 0.394305
P_10 0.418957 0.390674 0.409935 0.460931 0.491544 0.573750
P_10 0.681095 0.716951 0.773569 0.903819 1.078415 1.023859
P_10 1.081299 1.103927 1.227604 1.194971 1.223814 1.246036
P_10 1.274056 1.198585 1.215520 1.121204 1.079996 0.996031
P_10 1.070367 1.084717 1.009708 1.092372 1.057644 1.059622
P_10 1.111012 0.981162 1.012897 1.016244 1.075340 0.908806
P_10 0.993196 0.854731 0.857639 0.733301 0.648093 0.628350
P_10 0.609375 0.543173 0.544770 0.451587 0.450379 0.437293
P_10 0.406471 0.407931 0.417046 0.432517 0.461254 0.503063
P_10 0.549643 0.574894 0.625792 0.765904 0.835011 0.815515
P_10 0.960901 1.014619 1.105213 1.122533 1.032037 1.170142
P_10 1.157329 1.028896 1.029231 1.085845 0.955120 1.061462
P_10 0.968372 0.856304 0.897039 0.913592 0.989052 0.995852
P_10 0.907928 1.097710 1.090234 1.012815 1.087839 1.026842
P_10 0.996555 0.963908 0.947667 0.850076 0.736559 0.634239
P_10 0.549141 0.493272 0.419627 0.382463 0.354215 0.318783
P_10 0.340024 0.385312 0.442862 0.518508 0.575515 0.690573
P_10 0.764467 0.863492 0.891954 1.165030 1.217639 1.256947
P_10 1.264477 1.312505 1.300703 1.418097 1.397652 1.223029
P_10 1.234977 1.236766 1.116992 1.015425 1.035133 0.902011
P_10 0.959656 0.959510 0.924374 0.949396 0.967632 0.964628
P_10 1.048362 1.123077 1.123636 1.122582 1.119953 1.116850
P_10 1.061447 1.065578 1.024483 0.963733 0.856461 0.717796
P_10 0.622757 0.483432 0.472902 0.430682 0.372354 0.374322
P_10 0.345742 0.385982 0.402880 0.531328 0.560292 0.631938
P_10 0.751937 0.931375 0.989651 1.073462 1.197054 1.125725
P_10 1.240484 1.245421 1.299684 1.161234 1.264055 1.223699
P_10 1.158926 1.085929 1.178725 1.057663 0.985897 0.970780
P_10 1.014120 0.971800 0.829885 1.008631 1.048582 1.067945
P_10 1.086745 1.138500 1.176950 1.057773 1.179307 0.988983
P_10 1.192105 1.106757 1.023132 0.938796 0.834514 0.630386
P_10 0.594892 0.561130 0.490068 0.394189 0.355560 0.368876
P_10 0.364114 0.394188 0.493940 0.493837 0.637042 0.721088
P_10 0.836305 0.893621 0.969906 1.097737 1.211743 1.263685
P_10 1.242417 1.215646 1.337938 1.278090 1.212307 1.197310
P_10 1.122934 1.193033 1.118921 1.065541 0.943702 0.993544
P_10 1.036548 1.015308 1.022416 0.938816 1.007658 1.094294
P_10 1.029648 1.071066 1.185116 1.172390 1.126200 1.125342
P_10 1.089976 1.022454 1.100990 0.864161 0.775930 0.692532
P_10 0.609037 0.564287 0.454667 0.416544 0.370785 0.333561
P_10 0.338289 0.363611 0.431832 0.488584 0.626181 0.749554
P_10 0.809041 0.895147 0.974805 1.112231 1.144803 1.114459
P_10 1.243968 1.290390 1.289537 1.381670 1.254363 1.260407
P_10 1.241424 1.036242 0.954290 1.031673 1.003046 1.017727
P_10 0.943259 0.960613 0.904126 1.020311 0.942031 1.043242
P_10 1.051977 0.965833 1.054021 1.087050 1.089379 1.160847
P_10 1.071456 0.915027 0.918904 0.897488 0.809279 0.777719
P_10 0.634438 0.559375 0.478648 0.414437 0.388449 0.356508
P_10 0.371567 0.374447 0.471809 0.571612 0.695229 0.795925
P_10 0.915560 1.062643 1.186940 1.343747 1.424621 1.396633
P_10 1.404340 1.549725 1.461690 1.471995 1.384393 1.403553
P_10 1.169491 1.264362 1.145688 1.163464 1.073261 1.020840
P_10 0.991874 1.081620 1.023044 1.089820 1.071945 1.042451
P_10 1.163388 1.082125 1.157420 1.190717 1.127938 1.065781
P_10 1.109612 1.019946 0.922226 0.984407 0.817279 0.712203
P_10 0.680313 0.633788 0.544604 0.526025 0.437043 0.433918
P_10 0.379557 0.384173 0.404262 0.421480 0.524134 0.588878
P_10 0.662474 0.743477 0.816703 0.908007 0.988305 1.084648
P_10 1.105151 1.146212 1.092886 1.228113 1.261023 1.303323
P_10 1.177316 1.140887 1.163305 1.135946 1.085936 1.038090
P_10 1.130702 1.016119 0.996242 1.020122 1.112217 1.080806
P_10 1.147283 1.075231 1.093899 0.937983 1.092835 0.999963
P_10 0.938642 0.932387 0.780049 0.745509 0.752148 0.697314
P_10 0.602122 0.565895 0.521529 0.478705 0.455350 0.448453
P_10 0.356302 0.422633 0.403498 0.433851 0.452353 0.494026
P_10 0.511473 0.591491 0.682144 0.745626 0.800025 0.832291
P_10 0.970320 1.013502 1.125887 0.976918 1.212449 1.160437
P_10 1.118948 1.153098 1.080922 1.000757 0.953303 0.968207
P_10 0.989725 0.984012 0.874513 0.999374 0.942643 0.884945
P_10 1.013120 1.101129 1.014538 1.085848 1.049129 1.090694
P_10 1.018505 1.041455 0.927810 0.863436 0.834158 0.669256
P_10 0.601420 0.512998 0.473259 0.404168 0.362709 0.324798
P_10 0.336004 0.366002 0.438541 0.518549 0.568092 0.687381
P_10 0.864172 0.842395 1.035000 1.187678 1.267155 1.297385
P_10 1.407617 1.487449 1.359588 1.348337 1.528387 1.341986
P_10 1.191141 1.233449 1.166632 0.996951 0.983227 0.980753
P_10 0.987332 0.891020 0.962828 0.918486 0.997436 0.948180
P_10 0.987205 1.058707 1.116735 1.301635 1.148116 1.117039
P_10 1.113297 1.056512 0.971040 0.954744 0.815616 0.760375
P_10 0.655445 0.575090 0.472449 0.396467 0.352763 0.371366
P_10 0.348524 0.356897 0.440763 0.523017 0.558921 0.691633
P_10 0.769684 0.875383 1.003587 1.071809 1.201564 1.199947
P_10 1.385926 1.263567 1.285413 1.410602 1.260515 1.158178
P_10 1.239961 1.116242 1.106842 1.090499 0.996976 1.085298
P_10 0.932866 0.956317 1.019003 0.946486 1.075750 1.001979
P_10 1.102807 1.108459 1.125390 1.193735 1.187781 1.205163
P_10 1.088803 1.123977 0.996831 0.909436 0.792406 0.710388
P_10 0.621680 0.528305 0.501387 0.398626 0.376810 0.349637
P_10 0.372875 0.386131 0.437863 0.552160 0.631241 0.767395
P_10 0.801759 0.868662 0.948692 1.105119 1.176069 1.285907
P_10 1.344817 1.242620 1.233856 1.290401 1.324254 1.377152
P_10 1.368116 1.228035 1.228543 1.145231 1.070272 1.025085
P_10 1.016877 0.991399 1.005253 0.904756 1.089775 1.067028
P_10 1.071343 1.242223 1.084239 1.096131 1.080706 1.088768
P_10 1.158470 1.043184 1.038183 0.835054 0.798240 0.731904
P_10 0.690240 0.589796 0.431246 0.380746 0.359110 0.334053
P_10 0.354777 0.410814 0.417527 0.520087 0.646463 0.755394
P_10 0.830083 0.986379 1.084054 1.155527 1.123522 1.313566
P_10 1.451337 1.314535 1.381545 1.111166 1.177728 1.164546
P_10 1.171699 1.164562 1.007499 1.153551 0.965273 1.001382
P_10 0.998388 0.999165 0.982970 0.981378 1.045090 1.018072
P_10 1.093311 1.129009 1.252446 1.101122 1.218165 1.203414
P_10 1.014499 1.021238 0.985244 0.936687 0.781798 0.737422
P_10 0.640776 0.529829 0.480385 0.425480 0.408137 0.360007
P_10 0.392577 0.376866 0.491830 0.563484 0.698027 0.860890
P_10 0.908119 0.985595 1.236528 1.301354 1.339466 1.387932
P_10 1.538451 1.510189 1.485553 1.372044 1.425078 1.369703
P_10 1.256329 1.263828 1.248700 1.106826 1.082640 1.100852
P_10 1.096928 1.134724 1.054666 1.083766 1.058391 1.179999
P_10 1.193469 1.199057 1.197382 1.214675 1.212374 1.103832
P_10 1.111515 1.000869 1.042959 0.868213 0.789997 0.808084
P_10 0.707110 0.639491 0.594054 0.523513 0.445905 0.418649
P_10 0.385462 0.376348 0.430281 0.462582 0.505848 0.574652
P_10 0.686916 0.683182 0.886349 0.925455 1.016845 1.030178
P_10 1.229333 1.135100 1.190228 1.196070 1.197576 1.119238
P_10 1.185022 1.086987 1.179771 1.138721 1.033127 1.101419
P_10 1.188198 1.084355 1.129845 1.144376 1.253161 1.088115
P_10 0.985047 1.036702 1.039385 1.072935 1.058340 0.995750
P_10 0.956500 0.937370 0.862642 0.756819 0.727548 0.659961
P_10 0.610998 0.602996 0.518122 0.484948 0.477590 0.428107
P_10 0.411020 0.414929 0.428961 0.436190 0.445612 0.498805
P_10 0.522386 0.647074 0.736204 0.744327 0.847201 0.952823
P_10 1.080039 1.029680 0.972069 1.114228 1.175718 1.258443
P_10 1.136323 1.064459 1.008534 1.022542 1.076635 0.944637
P_10 1.057094 1.020223 0.976472 0.971996 0.888925 0.981198
P_10 1.027204 1.110586 1.165074 1.069290 1.054916 0.974473
P_10 1.087560 1.022715 0.899978 0.836585 0.819191 0.697696
P_10 0.591169 0.516502 0.457505 0.406716 0.355436 0.345067
P_10 0.352460 0.385279 0.444355 0.524134 0.609720 0.725754
P_10 0.824637 0.953966 0.982107 1.204912 1.236301 1.451309
P_10 1.432822 1.441046 1.382834 1.447166 1.410703 1.419683
P_10 1.414415 1.168993 1.184372 1.070713 1.051810 0.981784
P_10 0.959144 0.856505 0.880191 0.953657 0.981176 1.047656
P_10 0.978660 1.037814 1.188614 1.158676 1.229958 1.175671
P_10 1.132546 1.158267 0.988972 0.922410 0.877426 0.729533
P_10 0.630572 0.506531 0.527161 0.421719 0.397209 0.337967
P_10 0.376695 0.376260 0.425874 0.520827 0.555641 0.692533
P_10 0.722410 0.921196 1.018714 1.044097 1.230193 1.320683
P_10 1.394849 1.379275 1.415398 1.336279 1.291965 1.235320
P_10 1.212059 1.216681 1.074373 1.041461 1.075389 0.956943
P_10 0.964560 0.957110 1.020062 1.023909 1.036554 1.067423
P_10 1.097094 1.161005 1.179995 1.133664 1.241570 1.063270
P_10 1.153262 1.092670 0.974306 0.928706 0.843068 0.762830
P_10 0.622981 0.548079 0.509329 0.403107 0.387292 0.383051
P_10 0.325222 0.407932 0.508754 0.541089 0.610080 0.713008
P_10 0.779815 0.893867 0.995106 1.137767 1.228775 1.342142
P_10 1.301963 1.327295 1.380204 1.354794 1.310623 1.362071
P_10 1.163526 1.158797 1.183730 1.184403 1.078916 1.036764
P_10 1.182808 0.965966 0.995227 1.066026 0.986031 1.041592
P_10 1.166325 1.078078 1.156255 1.271335 1.097600 1.235710
P_10 1.108249 1.113514 0.946477 1.006928 0.842877 0.813741
P_10 0.664433 0.544310 0.476436 0.425871 0.374289 0.386599
P_10 0.331781 0.347904 0.437467 0.530461 0.632932 0.756782
P_10 0.943173 0.991744 1.106490 1.192666 1.309953 1.203431
P_10 1.253704 1.198564 1.290128 1.348492 1.264979 1.253052
P_10 1.140684 1.175312 1.089275 1.057080 1.035562 0.987493
P_10 1.005411 0.958476 0.994978 1.034764 1.044617 1.058417
P_10 1.110204 1.081605 1.202898 1.230196 1.299079 1.159564
P_10 1.225876 1.090271 0.964043 0.977630 0.931403 0.764546
P_10 0.689586 0.539280 0.475044 0.444014 0.357616 0.356342
P_10 0.375160 0.395063 0.456773 0.593077 0.678425 0.816239
P_10 0.790126 1.105811 1.085466 1.376948 1.476684 1.542014
P_10 1.533422 1.629892 1.578548 1.684560 1.488993 1.502258
P_10 1.402376 1.376144 1.199227 1.329981 1.184986 1.065702
P_10 1.033264 1.041001 1.155418 1.080573 1.029767 1.207152
P_10 1.122687 1.137867 1.180326 1.179257 1.143167 1.036420
P_10 1.124114 1.100102 0.977749 0.876695 0.902420 0.728109
P_10 0.753867 0.712980 0.639508 0.512146 0.477223 0.434603
P_10 0.370508 0.407891 0.433762 0.437998 0.521235 0.601295
P_10 0.687393 0.719121 0.806392 1.019941 1.099193 1.185811
P_10 1.100132 1.267168 1.260617 1.367809 1.134744 1.199945
P_10 1.282358 1.203098 1.102739 1.091766 1.002953 1.082123
P_10 1.037818 1.120282 1.146313 0.999619 1.048589 1.084553
P_10 1.185787 1.078969 1.132308 1.123523 1.156667 0.992768
P_10 0.962770 0.898609 0.893417 0.714078 0.738961 0.743836
P_10 0.653407 0.567377 0.504112 0.525735 0.445012 0.402908
P_10 0.417903 0.426119 0.420630 0.470018 0.453421 0.560115
P_10 0.561745 0.570953 0.628594 0.747331 0.856408 0.934027
P_10 0.939393 1.077314 0.954842 1.217895 1.154803 1.222970
P_10 1.139365 1.165800 1.098802 1.079759 1.046971 1.047758
P_10 1.012042 0.927982 1.050179 1.031649 0.917721 1.133248
P_10 1.092310 1.055088 1.123781 1.129181 1.085705 1.060321
P_10 1.089585 0.997565 0.886443 0.847126 0.829113 0.724866
P_10 0.513485 0.551868 0.467273 0.424208 0.385412 0.368516
P_10 0.361214 0.367844 0.451615 0.513233 0.578099 0.748535
P_10 0.874197 0.917351 1.053411 1.237508 1.372734 1.403517
P_10 1.429069 1.470385 1.591179 1.524245 1.489123 1.300213
P_10 1.392964 1.308945 1.128836 1.019293 0.946041 0.971634
P_10 1.061395 1.003857 0.939012 0.991394 1.026391 0.975689
P_10 0.990205 1.211116 1.204286 1.269980 1.278972 1.238693
P_10 1.136141 1.126316 0.968294 1.000272 0.783838 0.741574
P_10 0.700662 0.546335 0.479761 0.439959 0.368642 0.375931
P_10 0.369454 0.400983 0.432169 0.532085 0.535668 0.670017
P_10 0.833806 0.921252 0.982750 1.158931 1.312098 1.335874
P_10 1.488806 1.333765 1.354788 1.394404 1.322369 1.294228
P_10 1.376419 1.195563 1.046588 1.144178 1.034061 0.963805
P_10 0.968278 1.005813 1.010870 1.016031 1.053153 1.174757
P_10 1.150692 1.208363 1.298117 1.234488 1.256893 1.361634
P_10 1.105052 1.169665 1.038873 0.962502 0.863372 0.849516
P_10 0.561812 0.544882 0.420270 0.419697 0.384014 0.353369
P_10 0.373377 0.435397 0.433534 0.501579 0.591082 0.727762
P_10 0.808835 0.981803 1.025068 1.164370 1.215367 1.285230
P_10 1.294521 1.430070 1.314335 1.576279 1.398294 1.386493
P_10 1.173025 1.320861 1.266043 1.134179 1.132490 1.039893
P_10 1.105429 1.051310 0.964212 1.055184 1.122591 0.982264
P_10 1.102642 1.173329 1.137822 1.226820 1.328614 1.164903
P_10 1.005864 1.062965 1.045680 1.004890 0.903792 0.735112
P_10 0.651123 0.596708 0.541269 0.422709 0.386347 0.338949
P_10 0.383714 0.378624 0.450711 0.564974 0.643208 0.811427
P_10 0.811538 0.995085 1.051112 1.171004 1.240301 1.206411
P_10 1.231415 1.420245 1.369399 1.377117 1.155092 1.226158
P_10 1.161953 1.140178 1.177074 1.023538 1.048763 1.065838
P_10 1.007844 1.003616 1.124019 1.129356 1.116363 1.110638
P_10 1.165278 1.209582 1.145862 1.281179 1.223213 1.262612
P_10 1.021241 1.143644 1.192274 0.927781 0.884424 0.839220
P_10 0.719796 0.583270 0.506259 0.438206 0.392275 0.361075
P_10 0.381620 0.419546 0.498150 0.577923 0.687371 0.860274
P_10 1.076106 1.116134 1.295756 1.408497 1.362811 1.595957
P_10 1.523840 1.495600 1.500593 1.508757 1.510763 1.364860
P_10 1.362531 1.322552 1.222677 1.227144 1.117643 1.110199
P_10 1.132511 1.103406 1.141948 1.243379 1.111843 1.132993
P_10 1.248674 1.207952 1.247478 1.131108 1.194438 1.172597
P_10 1.073727 1.141739 0.968319 0.962299 0.902039 0.844613
P_10 0.697089 0.600618 0.609168 0.515672 0.468855 0.412488
P_10 0.414298 0.434216 0.488012 0.475167 0.535180 0.569502
P_10 0.734368 0.825725 0.867048 0.956157 0.959707 1.108683
P_10 1.161338 1.200656 1.190673 1.392052 1.256253 1.295480
P_10 1.340487 1.259342 1.174137 1.150379 1.149498 1.108047
P_10 1.123731 1.199920 1.050687 1.135325 1.098741 1.088864
P_10 1.138704 1.215358 1.197204 1.133350 1.078727 1.026977
P_10 1.075795 0.986407 0.872881 0.830730 0.795963 0.695631
P_10 0.755298 0.641112 0.567876 0.496558 0.462448 0.429999
P_10 0.460273 0.438288 0.433804 0.412022 0.490524 0.504398
P_10 0.552881 0.666009 0.660318 0.748457 0.945207 0.985781
P_10 0.999432 1.160451 1.199503 1.146587 1.150679 1.189500
P_10 1.279666 1.089307 1.158883 1.195703 1.016096 1.170931
P_10 0.980895 1.071600 0.929395 1.067335 1.104597 0.998943
P_10 1.058085 1.137671 1.206405 1.197932 1.151745 1.176641
P_10 1.165730 1.050315 0.953790 0.884348 0.781461 0.699358
P_10 0.618387 0.572235 0.510078 0.431901 0.357167 0.356868
P_10 0.346446 0.387551 0.460443 0.526120 0.552017 0.693284
P_10 0.850465 0.875650 1.103124 1.228680 1.283525 1.325948
P_10 1.430053 1.457577 1.560007 1.475694 1.395233 1.575719
P_10 1.427808 1.185065 1.226697 1.119924 1.128559 0.912165
P_10 0.957125 0.975635 0.949546 0.984767 1.016857 1.038330
P_10 1.111266 1.158875 1.218723 1.247053 1.186298 1.283785
P_10 1.135797 1.204118 1.021253 1.000935 0.904505 0.814451
P_10 0.695122 0.601795 0.495327 0.415526 0.398909 0.365445
P_10 0.352007 0.390203 0.460619 0.506661 0.587383 0.769604
P_10 0.833064 1.000106 1.006355 1.115861 1.377916 1.178488
P_10 1.401064 1.345900 1.429935 1.414521 1.308521 1.309600
P_10 1.300399 1.304532 1.155946 1.033865 1.019476 1.052374
P_10 1.056254 1.014075 0.978128 0.939097 1.021399 1.180444
P_10 1.170555 1.259262 1.282636 1.295964 1.290207 1.191714
P_10 1.207489 1.143065 1.043463 0.971248 0.849811 0.769271
P_10 0.697316 0.542415 0.507882 0.390111 0.381485 0.323600
P_10 0.377144 0.408786 0.460281 0.552813 0.670310 0.788771
P_10 0.902449 0.980465 1.017837 1.187845 1.345305 1.344635
P_10 1.264682 1.467448 1.439510 1.337116 1.408247 1.387552
P_10 1.382810 1.352651 1.237551 1.232602 1.076252 1.159168
P_10 1.134930 1.038301 1.065152 1.027981 1.167728 1.230581
P_10 1.259416 1.273053 1.198356 1.174029 1.282538 1.344078
P_10 1.192125 1.160089 1.081655 1.025377 0.955532 0.739610
P_10 0.666503 0.578705 0.505987 0.440846 0.359735 0.382272
P_10 0.365570 0.423296 0.480089 0.552515 0.649464 0.805927
P_10 0.872947 0.972743 0.980303 1.339750 1.216761 1.382178
P_10 1.336338 1.426386 1.447803 1.343416 1.338791 1.395259
P_10 1.255385 1.189804 1.179824 1.192685 1.056235 1.060902
P_10 1.113189 0.904725 1.079229 1.108555 1.122113 1.110245
P_10 1.188583 1.276632 1.238991 1.253357 1.360209 1.198371
P_10 1.281286 1.092795 1.120104 1.101896 0.877107 0.794464
P_10 0.677485 0.625336 0.521549 0.462521 0.438849 0.391697
P_10 0.399956 0.446687 0.490126 0.651074 0.714467 0.887326
P_10 0.967869 1.193940 1.353361 1.388444 1.478650 1.540880
P_10 1.576623 1.575557 1.610131 1.685715 1.558080 1.522414
P_10 1.396915 1.343640 1.100267 1.179448 1.219168 1.162513
P_10 1.094050 1.152852 1.148468 1.215245 1.085299 1.199596
P_10 1.213214 1.113021 1.196472 1.256322 1.268600 1.184329
P_10 1.275549 1.035306 0.978842 0.907741 0.912536 0.845545
P_10 0.680103 0.683072 0.609475 0.546472 0.504828 0.492589
P_10 0.405847 0.410934 0.444871 0.482824 0.549597 0.639206
P_10 0.702651 0.838548 0.852754 0.978379 1.153316 1.174392
P_10 1.249219 1.295253 1.285884 1.225147 1.222114 1.376151
P_10 1.285383 1.245391 1.195427 1.246644 1.117651 1.190702
P_10 1.122013 1.258953 1.284663 1.125195 1.257275 1.177939
P_10 1.168468 1.145482 1.165505 1.177120 1.161597 1.035011
P_10 1.040284 0.968136 0.929861 0.809133 0.792135 0.660020
P_10 0.722537 0.528504 0.593375 0.533800 0.513248 0.427008
P_10 0.423246 0.468069 0.444869 0.490074 0.489016 0.553893
P_10 0.583096 0.595845 0.777773 0.842558 0.905792 0.987159
P_10 1.044041 1.111078 1.247612 1.247815 1.142548 1.220013
P_10 1.218381 1.174161 1.113634 1.210447 1.099954 0.989566
P_10 1.034086 1.043842 1.001161 1.038468 1.033198 1.065542
P_10 0.977983 1.070848 1.073668 1.060289 1.202512 1.112173
P_10 1.107173 1.078781 0.976758 0.908640 0.794361 0.727305
P_10 0.645036 0.551596 0.472792 0.443646 0.373192 0.371807
P_10 0.396602 0.394951 0.465029 0.512153 0.659811 0.694009
P_10 0.891678 0.976052 1.199688 1.207480 1.213530 1.392443
P_10 1.460633 1.549002 1.438102 1.441151 1.448560 1.555703
P_10 1.415343 1.245670 1.275981 1.209708 1.115230 1.053809
P_10 1.114969 1.032529 1.009897 1.095090 1.039016 1.090381
P_10 1.142213 1.211147 1.197044 1.233928 1.173565 1.257944
P_10 1.185031 1.131214 1.098757 0.959982 0.987487 0.771379
P_10 0.707801 0.658768 0.472805 0.462388 0.404396 0.374501
P_10 0.353288 0.376568 0.454550 0.558075 0.598963 0.778006
P_10 0.758473 0.981960 1.051578 1.221865 1.230214 1.290886
P_10 1.397106 1.417313 1.547160 1.449126 1.440671 1.320179
P_10 1.293660 1.238168 1.112730 1.150825 1.110607 0.995576
P_10 1.106194 0.986967 0.999278 1.095202 1.085878 1.016617
P_10 1.149266 1.276630 1.328365 1.222236 1.240071 1.218975
P_10 1.289608 1.141538 1.125073 1.027605 0.915416 0.818210
P_10 0.687258 0.559171 0.461185 0.457911 0.390318 0.378790
P_10 0.363698 0.477251 0.507608 0.551623 0.692627 0.715002
P_10 0.840643 1.001320 1.083267 1.195259 1.235541 1.277495
P_10 1.455659 1.400633 1.574991 1.472257 1.366043 1.456956
P_10 1.262527 1.287315 1.212155 1.220088 1.164448 1.216411
P_10 1.070245 1.138908 1.049114 1.020271 1.113699 1.173747
P_10 1.191409 1.196328 1.283628 1.244118 1.308773 1.285622
P_10 1.143918 1.207467 1.057699 1.107849 0.921353 0.740056
P_10 0.699578 0.566530 0.511015 0.450550 0.411269 0.393457
P_10 0.350354 0.393976 0.500151 0.596046 0.667313 0.856712
P_10 0.897915 0.983542 1.161959 1.272082 1.315548 1.385832
P_10 1.339420 1.447853 1.338313 1.364478 1.296820 1.316749
P_10 1.234004 1.122958 1.199599 1.204043 1.055525 1.089151
P_10 0.960588 1.073259 1.091900 1.225809 1.167473 1.262291
P_10 1.250396 1.293677 1.356333 1.297444 1.228840 1.273720
P_10 1.104262 1.199975 1.098441 1.039085 0.912566 0.821268
P_10 0.731708 0.608139 0.511674 0.489275 0.410522 0.412276
P_10 0.409863 0.437733 0.465906 0.606923 0.782026 0.897450
P_10 0.961774 1.166462 1.246403 1.464277 1.659037 1.573095
P_10 1.662020 1.734830 1.757538 1.739535 1.451260 1.628285
P_10 1.440620 1.352426 1.294470 1.320651 1.319461 1.235152
P_10 1.164980 1.042827 1.111047 1.255808 1.204339 1.282039
P_10 1.196763 1.091610 1.181418 1.320380 1.175134 1.275727
P_10 1.118574 1.217614 1.140239 1.003273 0.889970 0.881545
P_10 0.801405 0.722595 0.599699 0.522452 0.480620 0.456639