; Filename: networks/Net1.inp
; WNTR: 0.1.6
; Created: 2019-04-09 13:27:32
[TITLE]
EPANET Example Network 1
A simple example of modeling chlorine decay. Both bulk and
wall reactions are included.

[JUNCTIONS]
;ID                      Elevation       Demand Pattern                 
 10                               710               0                            ;
 11                               710               0                            ;
 12                               700               0                            ;
 13                               695               0                            ;
 21                               700               0                            ;
 22                               695               0                            ;
 23                               690               0                            ;
 31                               700               0                            ;
 32                               710               0                            ;

[RESERVOIRS]
;ID                                   Head                  Pattern
 9                                800                            ;

[TANKS]
;ID                              Elevation           Init Level            Min Level            Max Level             Diameter           Min Volume Volume Curve        
 2                                850             120             100             150            50.5               0                        ;

[PIPES]
;ID                   Node1                Node2                              Length             Diameter            Roughness           Minor Loss               Status
 10                   10                   11                             10530              18             100               0                 Open   ;
 11                   11                   12                              5280              14             100               0                 Open   ;
 12                   12                   13                              5280              10             100               0                 Open   ;
 21                   21                   22                              5280              10             100               0                 Open   ;
 22                   22                   23                              5280              12             100               0                 Open   ;
 31                   31                   32                              5280               6             100               0                 Open   ;
 110                  2                    12                               200              18             100               0                 Open   ;
 111                  11                   21                              5280              10             100               0                 Open   ;
 112                  12                   22                              5280              12             100               0                 Open   ;
 113                  13                   23                              5280               8             100               0                 Open   ;
 121                  21                   31                              5280               8             100               0                 Open   ;
 122                  22                   32                              5280               6             100               0                 Open   ;

[PUMPS]
;ID                   Node1                Node2                Properties          
 9                    9                    10                   HEAD     1                      ;

[VALVES]
;ID                   Node1                Node2                            Diameter Type              Setting           Minor Loss

[TAGS]
;type      name       tag       

[DEMANDS]
;ID        Demand     Pattern   
10         0.0        P_10      
11         150.0      P_11      
12         150.0      P_12      
13         100.0      P_13      
21         150.0      P_21      
22         200.0      P_22      
23         150.0      P_23      
31         100.0      P_31      
32         100.0      P_32      

[STATUS]
;ID        Setting   
[PATTERNS]
;ID        Multipliers

1 1.000000 1.200000 1.400000 1.600000 1.400000 1.200000
1 1.000000 0.800000 0.600000 0.400000 0.600000 0.800000

P_10 0.599408 0.548445 0.442991 0.432271 0.405698 0.397876
P_10 0.396795 0.448232 0.507671 0.502976 0.540527 0.692829
P_10 0.712971 0.836144 0.814200 1.019621 1.111884 1.287697
P_10 1.217200 1.269934 1.274425 1.316655 1.239229 1.390712
P_10 1.134727 1.192974 1.071863 1.048239 0.899971 0.887529
P_10 0.912875 0.901239 0.810362 0.967892 0.925024 1.061558
P_10 0.910325 0.989751 1.028888 1.094839 1.137460 1.056804
P_10 0.921967 0.986096 0.823522 0.867273 0.827396 0.740697
P_10 0.683472 0.625757 0.517171 0.462794 0.424436 0.409286
P_10 0.392810 0.411505 0.481690 0.546393 0.583386 0.723209
P_10 0.775063 0.845804 0.941665 0.999994 1.049982 1.080211
P_10 1.207973 1.245372 1.185757 1.165672 1.138465 1.107218
P_10 1.198112 1.149856 1.086504 1.063354 0.996024 0.891463
P_10 1.009754 0.996925 0.920014 0.950402 0.935547 1.064497
P_10 0.985253 1.019529 1.026026 1.088365 1.072829 1.008395
P_10 0.999477 0.986258 0.900333 0.883773 0.811587 0.739313
P_10 0.644047 0.534446 0.480391 0.458701 0.432823 0.389353
P_10 0.422881 0.485572 0.499835 0.538918 0.655691 0.719696
P_10 0.726048 0.829983 0.895606 0.998121 1.136604 1.106665
P_10 1.230045 1.199229 1.274650 1.319587 1.198034 1.237958
P_10 1.193969 1.107764 1.175593 1.143251 1.017243 1.061289
P_10 1.053827 0.927519 1.035283 1.014454 1.058881 1.171046
P_10 1.049770 1.029915 1.076900 1.088259 1.028002 1.120689
P_10 1.127573 1.038015 0.949141 0.873727 0.828215 0.729659
P_10 0.679056 0.593676 0.479775 0.451114 0.439180 0.430584
P_10 0.434198 0.402631 0.479290 0.553072 0.594559 0.716814
P_10 0.797007 0.922087 0.999168 1.080799 1.067310 1.111490
P_10 1.302847 1.214198 1.273761 1.291885 1.107828 1.207804
P_10 1.167598 1.060027 1.136083 1.089735 0.990848 0.987280
P_10 0.972423 0.952716 0.915230 0.956620 1.103545 1.002279
P_10 0.960729 0.921762 1.146927 1.069327 1.097029 1.074232
P_10 0.947508 0.930003 0.949985 0.880480 0.830182 0.718676
P_10 0.667273 0.586697 0.513812 0.476187 0.446237 0.386609
P_10 0.442665 0.427799 0.487807 0.657442 0.654164 0.836457
P_10 1.005880 1.090547 1.102180 1.205189 1.243184 1.233023
P_10 1.438848 1.412033 1.327136 1.343722 1.319338 1.380403
P_10 1.241614 1.213968 1.124124 1.143483 1.093929 1.088938
P_10 0.941593 1.000884 0.980880 1.005326 0.958434 0.994064
P_10 0.958589 0.989319 1.073797 0.930053 1.031537 1.102439
P_10 1.029621 0.960776 0.921634 0.796847 0.804203 0.747961
P_10 0.736325 0.644933 0.622383 0.547337 0.497018 0.464849
P_10 0.451135 0.439687 0.470081 0.474379 0.560330 0.618773
P_10 0.597287 0.697498 0.845502 0.891521 0.888668 1.044610
P_10 1.069092 1.066894 1.235924 1.220935 1.125382 1.153608
P_10 1.100003 1.150748 1.120067 1.107546 1.061105 1.045598
P_10 1.174494 1.000840 0.950826 0.992361 0.982095 1.047120
P_10 1.017985 1.013818 0.923243 0.956975 0.917960 0.900192
P_10 0.921680 0.846637 0.766446 0.773478 0.729729 0.704854
P_10 0.611796 0.585558 0.561141 0.556583 0.530501 0.537091
P_10 0.411271 0.439198 0.465484 0.441040 0.507036 0.536458
P_10 0.538136 0.641022 0.625598 0.719068 0.772495 0.764695
P_10 0.872790 0.979207 0.998495 1.068442 0.992395 1.110663
P_10 1.003019 1.051360 1.078101 1.089606 1.015534 0.985662
P_10 1.028928 0.946639 0.937431 1.039663 0.949132 0.928854
P_10 0.812463 0.891065 1.025027 1.040218 0.988708 1.051074
P_10 1.008848 0.923544 0.836391 0.804778 0.719451 0.657032
P_10 0.583768 0.546423 0.511937 0.483429 0.428493 0.383619
P_10 0.449030 0.489579 0.496705 0.517123 0.607065 0.678806
P_10 0.798058 0.870402 0.926158 1.125891 1.090707 1.123038
P_10 1.327644 1.163938 1.305072 1.373096 1.187068 1.235999
P_10 1.201130 1.182758 1.113977 1.124985 0.970086 0.999599
P_10 0.985730 0.890512 0.931050 0.820289 0.909486 0.934715
P_10 0.944027 1.068853 0.948613 1.002493 1.015114 1.106658
P_10 1.055878 1.011268 1.059001 0.977693 0.838101 0.727000
P_10 0.695522 0.558916 0.493896 0.454225 0.416922 0.414165
P_10 0.410622 0.465582 0.445977 0.504854 0.585530 0.720285
P_10 0.790439 0.842029 0.973737 1.033310 1.049566 1.151858
P_10 1.200959 1.198513 1.245449 1.267104 1.196130 1.333309
P_10 1.152964 1.107324 1.083946 1.184474 0.951033 1.054191
P_10 0.959780 0.976377 0.982156 0.995279 0.913143 0.952532
P_10 1.081871 1.010795 1.148956 1.087637 1.094837 1.102122
P_10 1.021579 0.959583 0.973621 0.844312 0.758589 0.711053
P_10 0.682170 0.593260 0.502302 0.456310 0.405841 0.449666
P_10 0.406104 0.498885 0.545652 0.545561 0.620121 0.714328
P_10 0.795703 0.869121 0.897196 1.018794 1.137322 1.170302
P_10 1.237625 1.300587 1.211183 1.262071 1.284461 1.238765
P_10 1.156512 1.113762 1.226446 1.172360 1.087562 1.043461
P_10 1.033594 0.909033 1.022423 1.049210 1.020759 1.067802
P_10 1.035176 1.035696 1.065409 1.022362 1.078000 1.009416
P_10 1.063601 0.905451 0.979285 0.801466 0.826883 0.745072
P_10 0.632842 0.585370 0.524169 0.472073 0.435706 0.404958
P_10 0.450542 0.472549 0.499567 0.527538 0.648699 0.713948
P_10 0.906049 0.881365 0.955394 1.012023 1.068340 1.246081
P_10 1.155727 1.352887 1.163090 1.281845 1.216875 1.286184
P_10 1.103649 1.080366 1.100213 1.051355 1.025853 1.044209
P_10 1.014871 1.007208 0.988462 0.940832 0.965230 1.056728
P_10 1.046320 1.103772 0.985300 1.119128 1.178327 0.993372
P_10 1.036431 1.000686 1.018742 0.911058 0.725656 0.756819
P_10 0.667503 0.594239 0.508795 0.479538 0.455265 0.439138
P_10 0.438730 0.428515 0.509449 0.536456 0.708349 0.808351
P_10 0.870110 1.034430 1.063125 1.263498 1.254074 1.386759
P_10 1.332310 1.379384 1.470301 1.325765 1.312155 1.207398
P_10 1.335119 1.091393 1.256860 1.106166 1.204243 1.001180
P_10 1.081892 0.965994 1.130578 1.030490 1.043577 1.095319
P_10 1.065306 1.000389 1.054811 1.038039 1.048075 1.018273
P_10 0.981411 0.905538 0.922720 0.905561 0.917113 0.793194
P_10 0.776022 0.740155 0.597594 0.558087 0.538750 0.515613
P_10 0.501138 0.475338 0.467631 0.517986 0.504124 0.557979
P_10 0.713873 0.743976 0.825138 0.916642 0.908189 1.051039
P_10 1.163659 1.144814 1.211908 1.206252 1.201062 1.191687
P_10 1.172533 1.230092 1.127109 1.117423 1.075161 1.091072
P_10 1.035691 1.085007 1.068639 0.979863 1.021246 0.989244
P_10 1.001373 1.046557 1.060628 0.972827 0.983437 0.909804
P_10 0.872528 0.923249 0.808204 0.749053 0.753384 0.717180
P_10 0.597108 0.661363 0.532150 0.567324 0.497022 0.458343
P_10 0.508971 0.480762 0.452058 0.475360 0.491434 0.510580
P_10 0.517128 0.621163 0.678532 0.711118 0.836646 0.937402
P_10 0.934624 1.018194 1.027355 1.025557 1.061115 1.080082
P_10 1.105057 1.130654 1.144692 1.066301 0.988925 1.015871
P_10 1.089879 0.954291 0.900622 0.967686 1.022425 0.856198
P_10 0.971205 0.974820 0.930422 1.025014 1.037007 0.981770
P_10 0.957568 0.919932 0.872631 0.798225 0.768000 0.670981
P_10 0.612759 0.540007 0.527546 0.436497 0.401863 0.409839
P_10 0.451100 0.444921 0.487060 0.566261 0.606545 0.683415
P_10 0.787505 0.795867 0.910693 1.096138 1.110563 1.190577
P_10 1.274564 1.276573 1.228966 1.384879 1.299198 1.246544
P_10 1.256019 1.229384 1.084115 1.080649 1.069993 0.893052
P_10 0.880946 0.914140 0.907157 0.916984 0.950170 1.039881
P_10 0.992952 1.135940 1.008380 1.094543 1.082916 1.045936
P_10 1.078282 0.982772 0.931639 0.907665 0.831239 0.704036
P_10 0.668598 0.563594 0.562134 0.471559 0.426984 0.412532
P_10 0.419503 0.452439 0.489467 0.547527 0.607917 0.673834
P_10 0.795417 0.927656 1.005028 1.091303 1.171773 1.014912
P_10 1.180450 1.272752 1.178200 1.283322 1.367190 1.264808
P_10 1.300464 1.083285 1.198085 1.035225 1.010230 1.023631
P_10 1.000717 0.947359 1.015033 0.987631 1.005272 1.090507
P_10 1.003569 1.025568 1.059938 1.097584 1.134764 1.098307
P_10 1.016897 1.011324 0.916789 0.864068 0.896924 0.720246
P_10 0.649407 0.588908 0.532630 0.447047 0.457619 0.437978
P_10 0.430520 0.490278 0.482964 0.589105 0.621490 0.697117
P_10 0.824923 0.883960 0.979659 1.067217 1.107815 1.145904
P_10 1.304200 1.409775 1.345092 1.228697 1.344096 1.298514
P_10 1.192200 1.229668 1.076848 1.079660 1.008854 1.094287
P_10 1.035626 1.018608 0.963283 1.058321 0.993908 1.101346
P_10 0.980461 1.000366 1.050020 1.062328 1.083477 1.125511
P_10 1.158727 1.028024 1.028811 0.859698 0.879965 0.794525
P_10 0.757670 0.642935 0.537330 0.483005 0.450754 0.395676
P_10 0.417219 0.426394 0.507481 0.588748 0.610674 0.708882
P_10 0.839700 0.845873 0.987725 1.093724 1.131193 1.124322
P_10 1.374238 1.194627 1.304098 1.313897 1.143586 1.095730
P_10 1.180028 1.187157 1.182740 1.130349 1.030296 1.046839
P_10 0.915425 1.030474 0.959923 1.039454 1.043712 0.937275
P_10 1.047055 1.174020 1.145524 1.119950 1.183566 1.113473
P_10 1.001507 1.019493 0.932629 0.895275 0.807250 0.772882
P_10 0.760650 0.628310 0.615608 0.531451 0.446586 0.494576
P_10 0.468568 0.496693 0.634342 0.649681 0.757565 0.810387
P_10 0.995668 1.046976 1.091593 1.298945 1.314795 1.375831
P_10 1.298071 1.461090 1.352622 1.472365 1.149886 1.323888
P_10 1.374752 1.285463 1.171038 1.177768 1.147861 1.106672
P_10 0.982627 1.019216 1.093601 1.101288 1.072247 1.101089
P_10 1.000214 1.088458 1.026655 1.031410 1.030887 1.081135
P_10 0.975623 0.869817 0.957215 0.926280 0.828954 0.765665
P_10 0.682230 0.600657 0.599265 0.599610 0.509378 0.489966
P_10 0.499943 0.494254 0.440070 0.531108 0.509388 0.656771
P_10 0.702415 0.742572 0.872214 0.898947 0.994701 0.998870
P_10 0.937236 1.194780 1.213032 1.197909 1.233120 1.254018
P_10 1.239687 1.259034 1.176038 1.053103 1.090700 1.257702
P_10 1.134878 1.058209 1.034161 1.144917 1.160663 1.118370
P_10 1.110714 1.058530 1.052765 0.995180 0.961065 0.919722
P_10 0.981104 0.840374 0.871249 0.772489 0.805703 0.707972
P_10 0.642348 0.576793 0.510879 0.528912 0.530035 0.507074
P_10 0.508040 0.490562 0.489207 0.490143 0.481057 0.507031
P_10 0.534221 0.601456 0.656247 0.772806 0.783727 0.761491
P_10 0.866468 1.013655 0.992452 1.040524 1.140624 1.079355
P_10 1.162869 1.152312 1.037920 1.071253 1.032506 1.000572
P_10 1.011311 0.996431 0.967817 1.012882 1.020830 1.028648
P_10 1.012575 1.012863 1.038447 1.055019 1.016818 1.044146
P_10 0.952713 0.925488 0.872029 0.845576 0.805771 0.708535
P_10 0.597243 0.544986 0.479325 0.505985 0.456840 0.413115
P_10 0.439809 0.481323 0.477878 0.589036 0.608076 0.722621
P_10 0.814841 0.931273 1.002014 1.017055 1.129951 1.201556
P_10 1.243436 1.292636 1.488019 1.296119 1.266454 1.212296
P_10 1.369504 1.203935 1.246046 1.100198 1.047865 1.096018
P_10 0.948104 0.960397 0.867297 1.012711 0.987680 0.984682
P_10 1.050428 1.024863 1.102835 1.140655 1.245870 1.102381
P_10 1.075876 1.089684 0.959845 0.957830 0.831450 0.775535
P_10 0.625846 0.567159 0.590931 0.530638 0.467515 0.426804
P_10 0.466079 0.434688 0.465508 0.606846 0.586113 0.776107
P_10 0.785587 0.887515 0.948942 1.061112 1.148321 1.245671
P_10 1.247778 1.378836 1.169880 1.327296 1.268919 1.290862
P_10 1.233394 1.152406 1.139576 1.014099 1.034395 0.969283
P_10 0.925973 0.994212 0.946900 1.003005 1.000441 1.019002
P_10 1.079805 1.149474 1.111890 1.126887 1.131487 1.149849
P_10 1.151288 1.034747 1.038831 0.899081 0.738635 0.734219
P_10 0.705058 0.579893 0.516163 0.471063 0.464853 0.446632
P_10 0.492860 0.514827 0.540051 0.597303 0.627322 0.762914
P_10 0.852033 0.868693 1.032072 1.014795 1.180068 1.154956
P_10 1.258744 1.283561 1.300329 1.307849 1.259215 1.271545
P_10 1.368265 1.267466 1.296117 1.168035 1.085629 1.041005
P_10 1.053281 1.084888 1.078279 0.973696 1.109749 1.122951
P_10 1.149735 1.014041 0.965041 1.145242 1.125479 1.098790
P_10 1.098650 1.054724 0.986448 0.907759 0.795852 0.870643
P_10 0.671255 0.626724 0.600618 0.471602 0.445758 0.442391
P_10 0.473879 0.499229 0.526643 0.606987 0.679778 0.813510
P_10 0.852680 0.983841 1.122234 1.132399 1.235582 1.161893
P_10 1.183905 1.230014 1.388045 1.406299 1.223255 1.307300
P_10 1.216202 1.233048 1.130356 1.096825 1.109989 1.074053
P_10 1.065234 1.012530 1.053836 1.103428 1.005225 1.101234
P_10 1.066064 1.158888 1.158909 1.119076 1.041606 1.150508
P_10 1.098807 1.091208 1.028818 0.957723 0.827292 0.787697
P_10 0.731995 0.658145 0.632847 0.531339 0.505365 0.462242
P_10 0.454634 0.485439 0.546208 0.605625 0.756725 0.827932
P_10 0.932821 1.081326 1.075026 1.255068 1.292897 1.373777
P_10 1.434607 1.437464 1.414859 1.439972 1.297559 1.357368
P_10 1.342358 1.379944 1.243007 1.142637 1.097782 1.062768
P_10 1.082992 1.080062 1.039387 1.111937 1.051506 1.200122
P_10 0.976822 1.122561 1.131776 1.004357 1.102938 1.058257
P_10 1.015693 0.992136 0.938912 0.850404 0.922395 0.832284
P_10 0.724174 0.658645 0.643037 0.521687 0.502288 0.517927
P_10 0.493686 0.507641 0.539313 0.486969 0.544005 0.595923
P_10 0.725696 0.845920 0.727234 0.940948 0.976567 1.103955
P_10 1.238300 1.073497 1.365407 1.315973 1.240170 1.203458
P_10 1.184355 1.194574 1.079854 1.053413 1.152544 1.109365
P_10 1.086273 1.076026 1.167318 1.112309 1.074441 1.096670
P_10 1.137395 1.145386 1.064159 1.081520 1.002897 0.953868
P_10 0.977599 0.829849 0.803464 0.786559 0.724876 0.761195
P_10 0.679152 0.603908 0.545696 0.607421 0.520724 0.497606
P_10 0.456296 0.474052 0.455342 0.477270 0.542988 0.600133
P_10 0.616180 0.598605 0.672701 0.843990 0.710851 0.906224
P_10 0.996445 0.990636 1.102314 1.147315 1.150121 1.161052
P_10 1.168433 1.086120 1.115838 1.160450 1.053936 1.082328
P_10 1.019403 0.957348 1.020319 1.030176 1.042681 0.925559
P_10 1.052119 1.076444 1.066053 1.106849 0.995986 1.021197
P_10 0.998650 0.997025 0.837648 0.866525 0.814534 0.763953
P_10 0.624466 0.578407 0.533442 0.436522 0.473326 0.448375
P_10 0.428691 0.472168 0.531801 0.576282 0.680127 0.745671
P_10 0.913006 0.981893 1.005798 1.031178 1.180132 1.249965
P_10 1.305264 1.337732 1.224604 1.300974 1.433591 1.278741
P_10 1.366344 1.226752 1.191945 1.058545 1.065272 1.007066
P_10 0.980296 0.937797 0.936759 0.961967 0.957242 1.005854
P_10 0.881003 1.146925 1.055320 1.182603 1.131368 1.144356
P_10 1.139018 1.055504 0.916212 0.989128 0.714601 0.689290
P_10 0.653620 0.645762 0.542015 0.551822 0.501053 0.483049
P_10 0.456474 0.494827 0.510547 0.541157 0.696543 0.790792
P_10 0.793141 0.914841 1.039292 1.159315 1.150860 1.330126
P_10 1.212928 1.206028 1.277466 1.260212 1.269547 1.291686
P_10 1.270645 1.180034 1.189073 1.185952 1.044549 1.069418
P_10 0.981610 0.961539 1.007949 0.987288 1.101936 1.008787
P_10 1.034995 1.254092 1.200833 1.103114 1.207902 1.228496
P_10 1.154038 1.091443 1.077623 0.926301 0.851164 0.817945
P_10 0.666258 0.611758 0.529478 0.502393 0.457577 0.457574
P_10 0.466170 0.477807 0.530081 0.652527 0.703544 0.769309
P_10 0.799716 0.897543 1.057306 1.082003 1.287844 1.236619
P_10 1.324661 1.333629 1.381602 1.258902 1.422459 1.330202
P_10 1.342005 1.232831 1.273546 1.163566 1.186951 1.110107
P_10 1.060237 1.066142 1.028363 1.043680 0.996459 1.106471
P_10 1.158990 1.148312 1.082165 1.104269 0.994903 1.062132
P_10 1.065542 1.060829 0.984676 0.891356 0.812096 0.824617
P_10 0.669176 0.569329 0.512830 0.495730 0.453153 0.451102
P_10 0.473761 0.448697 0.544326 0.629866 0.669056 0.769721
P_10 0.853446 0.968251 1.101506 1.110794 1.241685 1.156551
P_10 1.225888 1.348816 1.206354 1.185386 1.348456 1.322955
P_10 1.141557 1.122402 1.197318 1.088101 1.018611 1.090537
P_10 1.001746 1.142798 1.110869 1.085998 1.011778 1.062729
P_10 1.073926 1.157592 1.145345 1.116937 1.119229 1.119259
P_10 1.001216 1.034884 0.910501 0.930683 0.983475 0.777870
P_10 0.708891 0.653219 0.594542 0.542101 0.500466 0.492498
P_10 0.484750 0.517084 0.570574 0.638293 0.677651 0.847668
P_10 0.961766 1.108536 1.165566 1.219632 1.338641 1.425353
P_10 1.431100 1.499037 1.564196 1.644483 1.601168 1.402775
P_10 1.446977 1.354883 1.307342 1.187996 1.121889 1.215712
P_10 1.101116 1.077728 1.092025 1.118127 1.028033 1.168804
P_10 0.983583 1.161316 1.150862 1.026485 1.087316 1.133151
P_10 0.975727 1.068109 0.948379 0.938781 0.879332 0.831283
P_10 0.781761 0.726545 0.677429 0.624566 0.553224 0.508680
P_10 0.506420 0.467488 0.500031 0.525924 0.621115 0.662872
P_10 0.775096 0.757928 0.859420 0.847164 0.995596 1.049059
P_10 1.244197 1.245840 1.336160 1.337309 1.315632 1.225266
P_10 1.282336 1.254950 1.222887 1.057715 1.235107 1.300626
P_10 1.193937 1.124383 1.135357 1.120012 1.141883 1.001917
P_10 1.127011 1.066447 1.025356 1.014653 1.022814 0.928288
P_10 0.898428 0.883282 0.830842 0.752985 0.740909 0.719956
P_10 0.701016 0.618349 0.675906 0.543564 0.504475 0.562505
P_10 0.464032 0.491565 0.526820 0.531390 0.531352 0.544375
P_10 0.575558 0.637907 0.769026 0.764325 0.882157 0.890404
P_10 0.927589 0.943709 1.030209 1.143176 1.180849 1.115292
P_10 1.167849 1.205242 1.175344 1.104984 1.120713 1.002881
P_10 1.070660 1.034564 1.062884 0.918522 0.914474 1.006188
P_10 1.071029 1.054955 1.040310 1.140560 1.090664 0.996521
P_10 0.982488 0.948592 0.922637 0.853752 0.791376 0.645460
P_10 0.629891 0.556641 0.524173 0.517218 0.492006 0.445618
P_10 0.396615 0.477280 0.523245 0.520966 0.652083 0.701100
P_10 0.789150 0.894754 0.974427 1.053154 1.221330 1.408760
P_10 1.310995 1.415518 1.425258 1.483960 1.298215 1.278946
P_10 1.321134 1.210647 1.287344 1.151991 1.200356 0.991151
P_10 0.983067 0.969612 0.897388 1.008998 0.973097 1.001628
P_10 1.051761 1.039415 1.008446 1.052063 1.150051 1.076712
P_10 1.125210 1.121994 1.034074 0.957699 0.844774 0.815094
P_10 0.702091 0.656935 0.586977 0.499016 0.489358 0.465981
P_10 0.436375 0.454510 0.536051 0.597391 0.672780 0.712212
P_10 0.830840 0.944431 0.981689 1.199868 1.204960 1.079338
P_10 1.423630 1.170109 1.320065 1.428371 1.243151 1.383609
P_10 1.237997 1.281057 1.301863 1.113594 1.117690 1.034241
P_10 0.974070 1.013175 1.166677 1.064585 1.084498 1.074208
P_10 1.183290 1.048854 1.236577 1.237275 1.215494 1.103098
P_10 1.211463 1.146506 1.021685 0.992102 0.859309 0.823249
P_10 0.725561 0.615653 0.560474 0.526282 0.447035 0.464525
P_10 0.427855 0.512589 0.555949 0.595739 0.639241 0.862872
P_10 0.880351 0.978012 1.109280 1.196279 1.223950 1.229663
P_10 1.305113 1.308030 1.409025 1.473166 1.281035 1.425453
P_10 1.299882 1.314050 1.325327 1.256786 1.180378 1.123196
P_10 1.169888 1.058554 0.989476 1.135230 1.138682 1.145160
P_10 1.069974 1.145907 1.168258 1.094900 1.199223 1.028640
P_10 1.069323 1.112709 1.009135 0.998938 0.909534 0.831582
P_10 0.705772 0.632630 0.545017 0.526802 0.468788 0.415946
P_10 0.502578 0.472261 0.556425 0.619313 0.726196 0.801097
P_10 0.845553 0.964094 1.092848 1.224832 1.254788 1.267310
P_10 1.409820 1.321673 1.394531 1.318660 1.451457 1.268985
P_10 1.230477 1.168450 1.149158 1.149084 1.112885 1.104199
P_10 1.053537 1.066073 1.153869 1.121220 1.068951 1.115604
P_10 1.106076 1.300197 1.147576 1.160438 1.207397 1.132739
P_10 1.034114 1.097817 1.061740 0.973992 0.910104 0.834778
P_10 0.767223 0.628396 0.555209 0.523576 0.514829 0.485435
P_10 0.479312 0.554495 0.626937 0.697315 0.779002 0.840431
P_10 0.958483 1.152190 1.187921 1.392869 1.391210 1.434930
P_10 1.425470 1.384868 1.488531 1.513043 1.471376 1.480787
P_10 1.395748 1.326001 1.344860 1.289506 1.203585 1.151324
P_10 1.135216 1.168816 1.143106 1.083599 1.115231 1.215116
P_10 1.250833 1.062907 1.117157 1.260912 1.066460 1.095984
P_10 1.140737 1.072010 0.945742 0.976845 0.943278 0.822679
P_10 0.792602 0.771697 0.660952 0.610180 0.520200 0.513008
P_10 0.550883 0.499476 0.520305 0.568074 0.589090 0.642750
P_10 0.709104 0.841888 0.835709 1.002469 1.011105 1.057873
P_10 1.210776 1.294369 1.363582 1.363753 1.215153 1.324765
P_10 1.308660 1.431231 1.231177 1.258287 1.254031 1.143242
P_10 1.157932 1.186993 1.253816 1.143233 1.078946 1.163890
P_10 1.138272 1.128268 1.134023 1.028583 1.054591 0.982768
P_10 0.984633 0.877437 0.848102 0.862118 0.811279 0.759179
P_10 0.682764 0.677358 0.574386 0.526148 0.561740 0.574203
P_10 0.534346 0.524466 0.521114 0.501348 0.516242 0.608286
P_10 0.572810 0.664254 0.725373 0.829791 0.853331 0.863736
P_10 1.016749 0.974744 1.117042 1.202136 1.168639 1.134697
P_10 1.276576 1.193991 1.201621 1.130874 1.096669 1.104430
P_10 1.038682 1.074903 0.995333 1.197651 1.054235 1.046623
P_10 1.074858 1.040585 1.152501 1.067227 1.101879 1.114600
P_10 1.001392 1.024381 0.917514 0.915010 0.808655 0.666492
P_10 0.701661 0.537615 0.540010 0.512621 0.453885 0.438088
P_10 0.426782 0.457844 0.505392 0.597734 0.648704 0.854126
P_10 0.815322 0.903542 1.012587 1.101747 1.255444 1.258786
P_10 1.467040 1.384316 1.420865 1.360702 1.389674 1.322693
P_10 1.270867 1.431196 1.311675 1.192460 1.125774 1.130474
P_10 1.038934 1.040092 1.017244 1.036461 1.069505 1.111042
P_10 1.101104 1.126075 1.196804 1.191996 1.189923 1.188205
P_10 1.039555 1.164317 1.047087 0.965547 1.001752 0.788544
P_10 0.734893 0.608844 0.527485 0.532951 0.506843 0.496851
P_10 0.482997 0.501112 0.534022 0.620703 0.617753 0.753094
P_10 0.846963 0.835649 1.038514 1.073093 1.155408 1.340993
P_10 1.301631 1.278969 1.391340 1.401907 1.388732 1.275726
P_10 1.343800 1.256115 1.234959 1.151816 1.168436 1.125763
P_10 1.113217 1.058643 1.027297 1.071664 1.085964 1.182356
P_10 1.063749 1.170085 1.273171 1.344309 1.165795 1.193598
P_10 1.297504 1.123320 1.014486 0.947578 0.918863 0.750128
P_10 0.729029 0.678294 0.588414 0.531772 0.496671 0.467593
P_10 0.477978 0.475236 0.559395 0.587670 0.726015 0.774060
P_10 0.843191 0.969646 1.086090 1.017885 1.202506 1.170279
P_10 1.352896 1.387494 1.350230 1.450711 1.314774 1.275920
P_10 1.460654 1.258674 1.200080 1.162070 1.248627 1.147687
P_10 1.119923 1.163225 1.082254 1.106900 1.152706 1.089410
P_10 1.095133 1.145064 1.236854 1.054642 1.180070 1.207261
P_10 1.223448 1.061307 0.987748 0.918452 0.893553 0.844422
P_10 0.719991 0.637052 0.563952 0.522347 0.497532 0.476069
P_10 0.483356 0.500719 0.588927 0.640179 0.718740 0.813262
P_10 0.937737 0.951900 0.982122 1.213079 1.201150 1.324329
P_10 1.397977 1.291969 1.386096 1.321767 1.305648 1.362833
P_10 1.209709 1.263591 1.212490 1.281502 1.163606 1.111669
P_10 1.034602 1.175860 1.109157 1.093569 1.226438 1.100907
P_10 1.195944 1.100233 1.188653 1.166115 1.133669 1.248337
P_10 1.141967 1.034001 0.978944 0.952376 0.974525 0.869952
P_10 0.665164 0.615695 0.544340 0.572974 0.511836 0.472391
P_10 0.546226 0.539027 0.591039 0.663596 0.704515 0.915498
P_10 1.002878 1.071907 1.108472 1.305556 1.337113 1.615935
P_10 1.422616 1.657611 1.659482 1.507952 1.507019 1.587273
P_10 1.437821 1.382863 1.238563 1.195492 1.303371 1.008136
P_10 1.145089 1.147845 1.189597 1.087754 1.237878 1.188742
P_10 1.227810 1.191551 1.227077 1.249282 1.091240 1.020846
P_10 1.103601 1.099264 1.068287 0.883514 0.873074 0.894724
P_10 0.669528 0.683247 0.673806 0.610036 0.601381 0.483510
P_10 0.559523 0.530273 0.500163 0.552545 0.628925 0.601342
P_10 0.745734 0.819919 0.879656 0.910592 1.066829 1.186950
P_10 1.269040 1.303625 1.366691 1.271145 1.298042 1.393071
P_10 1.236776 1.215230 1.236044 1.206239 1.258556 1.128942
P_10 1.250175 1.242776 1.179462 1.195994 1.084735 1.196060
P_10 1.193299 1.106532 1.034356 1.141428 1.161635 0.975605
P_10 0.998974 0.940571 0.915617 0.867611 0.775448 0.785976
P_10 0.724200 0.682489 0.657895 0.594211 0.551405 0.575765
P_10 0.529928 0.539555 0.515160 0.557651 0.568294 0.569646
P_10 0.603508 0.748982 0.709124 0.901428 0.923354 0.993778
P_10 1.019497 1.112695 1.121872 1.248199 1.280730 1.183458
P_10 1.359133 1.110024 1.319384 1.181741 1.090722 1.153619
P_10 1.133700 1.067399 1.043671 1.019443 1.128420 1.160404
P_10 1.045547 1.091265 0.985973 1.081118 0.994066 1.070056
P_10 1.109598 1.085461 0.996160 0.855142 0.842732 0.744834
P_10 0.688525 0.606329 0.583384 0.476454 0.486319 0.491676
P_10 0.483626 0.506906 0.564345 0.587173 0.684907 0.824478
P_10 0.871576 0.934273 1.107012 1.058614 1.283977 1.287526
P_10 1.374386 1.411467 1.437213 1.509753 1.450276 1.399750
P_10 1.421720 1.442266 1.281744 1.277185 1.104644 1.058750
P_10 1.009855 1.022568 0.977958 1.012448 0.953283 1.034900
P_10 1.079612 1.132243 1.251357 1.194797 1.125598 1.203888
P_10 1.182538 1.165015 1.064946 0.968720 0.941970 0.832163
P_10 0.770082 0.672249 0.573774 0.578751 0.512620 0.503618
P_10 0.497609 0.524310 0.558110 0.618079 0.704856 0.805856
P_10 0.840977 0.916519 1.080848 1.197748 1.181670 1.310036
P_10 1.373226 1.369581 1.476551 1.413854 1.357835 1.389717
P_10 1.403991 1.226262 1.278183 1.055327 1.102954 1.048940
P_10 1.068742 1.165157 0.962299 1.068996 1.167734 1.116402
P_10 1.126458 1.198491 1.275111 1.187989 1.193864 1.212772
P_10 1.282111 1.152229 1.110077 0.994647 0.979977 0.769108
P_10 0.786890 0.708697 0.609177 0.498556 0.462826 0.482706
P_10 0.482305 0.513431 0.549561 0.619413 0.695098 0.808729
P_10 0.924068 1.001137 1.100858 1.189117 1.240475 1.354794
P_10 1.283766 1.492635 1.377063 1.488157 1.330364 1.446772
P_10 1.382054 1.413091 1.288755 1.212551 1.272298 1.186244
P_10 1.041324 1.173844 1.097709 1.155141 1.148187 1.116468
P_10 1.034265 1.280584 1.285120 1.210859 1.159211 1.138498
P_10 1.124635 1.134355 1.120578 0.976481 1.029942 0.824920
P_10 0.727050 0.658528 0.609335 0.539168 0.482913 0.489747
P_10 0.486097 0.513613 0.598107 0.679864 0.754542 0.753481
P_10 1.011897 1.026602 1.056041 1.190257 1.145185 1.338588
P_10 1.340698 1.407627 1.505297 1.314947 1.347858 1.304434
P_10 1.278663 1.253731 1.106765 1.249865 1.185057 1.033266
P_10 1.182360 1.017806 1.107189 1.233236 1.130578 1.169302
P_10 1.223794 1.201531 1.209665 1.101811 1.195765 1.109490
P_10 1.221750 1.100609 1.107952 1.007002 0.939178 0.943509
P_10 0.688796 0.670753 0.619244 0.556680 0.514309 0.485661
P_10 0.542552 0.535593 0.572096 0.675858 0.765651 0.856976
P_10 0.937573 1.147768 1.257909 1.299827 1.457198 1.540552
P_10 1.647240 1.607244 1.483980 1.521852 1.545871 1.451684
P_10 1.460107 1.473678 1.450092 1.303424 1.186795 1.164729
P_10 1.160964 1.276481 1.263408 1.168036 1.177701 1.207286
P_10 1.214569 1.199944 1.278805 1.201353 1.179426 1.154393
P_10 1.197592 1.165613 1.067053 1.014254 0.912838 0.883116
P_10 0.779673 0.787998 0.739808 0.652451 0.601663 0.566663