; Filename: networks/Net1.inp
; WNTR: 0.1.6
; Created: 2019-04-09 13:11:31
[TITLE]
EPANET Example Network 1
A simple example of modeling chlorine decay. Both bulk and
wall reactions are included.

[JUNCTIONS]
;ID                      Elevation       Demand Pattern                 
 10                               710               0                            ;
 11                               710               0                            ;
 12                               700               0                            ;
 13                               695               0                            ;
 21                               700               0                            ;
 22                               695               0                            ;
 23                               690               0                            ;
 31                               700               0                            ;
 32                               710               0                            ;

[RESERVOIRS]
;ID                                   Head                  Pattern
 9                                800                            ;

[TANKS]
;ID                              Elevation           Init Level            Min Level            Max Level             Diameter           Min Volume Volume Curve        
 2                                850             120             100             150            50.5               0                        ;

[PIPES]
;ID                   Node1                Node2                              Length             Diameter            Roughness           Minor Loss               Status
 10                   10                   11                             10530              18             100               0                 Open   ;
 11                   11                   12                              5280              14             100               0                 Open   ;
 12                   12                   13                              5280              10             100               0                 Open   ;
 21                   21                   22                              5280              10             100               0                 Open   ;
 22                   22                   23                              5280              12             100               0                 Open   ;
 31                   31                   32                              5280               6             100               0                 Open   ;
 110                  2                    12                               200              18             100               0                 Open   ;
 111                  11                   21                              5280              10             100               0                 Open   ;
 112                  12                   22                              5280              12             100               0                 Open   ;
 113                  13                   23                              5280               8             100               0                 Open   ;
 121                  21                   31                              5280               8             100               0                 Open   ;
 122                  22                   32                              5280               6             100               0                 Open   ;

[PUMPS]
;ID                   Node1                Node2                Properties          
 9                    9                    10                   HEAD     1                      ;

[VALVES]
;ID                   Node1                Node2                            Diameter Type              Setting           Minor Loss

[TAGS]
;type      name       tag       

[DEMANDS]
;ID        Demand     Pattern   
10         0.0        P_10      
11         150.0      P_11      
12         150.0      P_12      
13         100.0      P_13      
21         150.0      P_21      
22         200.0      P_22      
23         150.0      P_23      
31         100.0      P_31      
32         100.0      P_32      

[STATUS]
;ID        Setting   
[PATTERNS]
;ID        Multipliers

1 1.000000 1.200000 1.400000 1.600000 1.400000 1.200000
1 1.000000 0.800000 0.600000 0.400000 0.600000 0.800000

P_10 0.604494 0.542624 0.456060 0.437790 0.426211 0.384200
P_10 0.395174 0.423202 0.429728 0.466329 0.532345 0.693437
P_10 0.713001 0.906166 0.919399 0.936419 1.147011 1.261298
P_10 1.240697 1.335434 1.285469 1.348965 1.241221 1.143328
P_10 1.149152 1.148536 1.086004 0.991906 0.968092 0.863750
P_10 0.907288 0.899653 0.882756 0.870091 0.844364 0.946560
P_10 0.973417 0.990100 1.027327 0.922014 0.977849 1.125605
P_10 1.007675 0.958513 0.946403 0.876181 0.822369 0.734712
P_10 0.662283 0.556081 0.506203 0.460345 0.442605 0.408093
P_10 0.393437 0.426451 0.444848 0.582984 0.583890 0.657557
P_10 0.750264 0.828106 0.879481 0.965183 1.039230 1.139114
P_10 1.083436 1.176623 1.113346 1.150329 1.126117 1.185793
P_10 1.168846 1.073459 0.992366 0.968644 1.037441 0.888461
P_10 0.874508 0.967223 0.924851 0.976289 1.010838 1.006909
P_10 1.075100 1.094018 1.049937 1.100199 1.122006 1.085380
P_10 1.011603 0.960478 0.834248 0.944379 0.844172 0.676341
P_10 0.641396 0.570180 0.510615 0.447981 0.408980 0.400263
P_10 0.403527 0.414691 0.468451 0.526197 0.628998 0.707259
P_10 0.813164 0.850192 0.942028 1.003211 1.076919 1.156948
P_10 1.171837 1.229137 1.145014 1.221357 1.109011 1.168838
P_10 1.160901 1.071687 1.176521 1.085668 1.057927 0.997715
P_10 0.998326 1.023087 0.904862 0.972057 0.974650 0.980479
P_10 1.002803 1.072153 1.054133 1.133294 0.987785 1.105042
P_10 0.963062 1.018935 0.923780 0.906108 0.822862 0.728222
P_10 0.657538 0.588984 0.555013 0.486268 0.448680 0.414052
P_10 0.376532 0.417614 0.455347 0.495533 0.600213 0.673383
P_10 0.788081 0.788608 0.921282 1.085915 1.081537 1.095751
P_10 1.020107 1.153233 1.187569 1.140389 1.127678 1.177177
P_10 1.077489 0.968539 1.049902 1.103003 0.874194 0.980895
P_10 0.925732 0.768604 0.994988 0.960092 0.998967 0.937270
P_10 1.051486 1.016225 0.966200 0.946313 1.092973 0.981912
P_10 1.048365 1.040227 0.935829 0.880888 0.803148 0.699120
P_10 0.654481 0.565669 0.564685 0.472968 0.415458 0.398137
P_10 0.461834 0.487549 0.549969 0.577915 0.669696 0.735519
P_10 0.909267 0.940036 1.210262 1.118864 1.179792 1.397631
P_10 1.363330 1.371913 1.305025 1.374388 1.364740 1.283546
P_10 1.162653 1.180235 1.050858 1.068799 1.131743 0.956259
P_10 0.968653 1.028431 1.080409 0.922172 0.988425 0.989963
P_10 1.109684 1.159600 1.057480 1.100535 1.055012 0.993593
P_10 0.965491 0.917753 0.952979 0.906590 0.821497 0.734232
P_10 0.661065 0.681085 0.554463 0.535912 0.490485 0.460757
P_10 0.478962 0.463741 0.459051 0.463577 0.572611 0.535289
P_10 0.638439 0.758007 0.790591 0.849406 0.976773 1.063729
P_10 1.142965 1.048858 1.102049 1.167185 1.172099 1.104247
P_10 1.080402 1.129390 1.150554 1.134067 1.122860 0.982828
P_10 1.047859 0.945977 1.042063 0.938155 1.136611 0.982491
P_10 1.049617 1.119761 1.031119 1.012176 0.979568 0.928918
P_10 0.941009 0.886754 0.865124 0.752969 0.735833 0.659396
P_10 0.600972 0.615456 0.556350 0.534905 0.487479 0.433443
P_10 0.433460 0.458660 0.451052 0.488909 0.475836 0.512176
P_10 0.547650 0.587310 0.619367 0.714494 0.783091 0.880517
P_10 0.881923 0.924881 1.056403 1.007646 1.038879 1.114093
P_10 1.095082 1.016461 1.039069 1.015429 1.021501 0.998868
P_10 0.922795 0.950022 0.942392 0.954076 1.000905 0.896725
P_10 1.007562 0.976103 1.004219 1.046561 1.003664 0.998380
P_10 0.926449 0.974932 0.890692 0.785700 0.837531 0.683373
P_10 0.622485 0.534374 0.461385 0.473371 0.422191 0.415040
P_10 0.385484 0.403264 0.434789 0.496360 0.592273 0.593594
P_10 0.759290 0.848624 0.894944 1.004670 1.022706 1.164879
P_10 1.194088 1.244292 1.236576 1.232697 1.246100 1.193545
P_10 1.250183 1.185836 1.096643 1.043582 0.960207 0.922028
P_10 0.945122 0.932529 0.859285 0.945462 0.911910 1.050072
P_10 0.948180 0.967304 1.117736 0.971343 1.090338 1.071310
P_10 0.948493 1.055333 1.055200 0.909624 0.919051 0.712300
P_10 0.644380 0.553199 0.578313 0.452234 0.454604 0.381934
P_10 0.427428 0.427118 0.507656 0.528366 0.631591 0.688623
P_10 0.739388 0.812711 0.919907 0.980563 1.078836 1.011656
P_10 1.101115 1.141730 1.109881 1.103404 1.157206 1.106982
P_10 1.162120 1.132485 1.019035 0.946049 0.986678 0.856649
P_10 0.848341 0.936967 0.965777 0.869023 1.005865 1.058599
P_10 1.044074 1.054689 1.075890 1.064968 1.065662 0.984705
P_10 1.030405 1.006237 0.990125 0.960548 0.863995 0.725206
P_10 0.628292 0.570869 0.483165 0.449063 0.398324 0.424686
P_10 0.415247 0.480479 0.476959 0.527994 0.637666 0.713032
P_10 0.825640 0.741317 0.996215 1.008721 1.120760 1.149207
P_10 1.183019 1.172354 1.152510 1.185805 1.322149 1.213518
P_10 1.150409 1.317496 1.191050 1.044753 1.101836 1.103999
P_10 0.924253 1.027456 0.922813 0.961948 1.008898 1.048022
P_10 1.043287 1.053049 1.093769 1.028760 1.093190 1.092008
P_10 1.006572 1.084912 1.037077 0.881536 0.834316 0.705446
P_10 0.635029 0.570785 0.500104 0.478221 0.468238 0.399299
P_10 0.441053 0.410080 0.531157 0.579742 0.602814 0.636441
P_10 0.810319 0.864266 0.959042 1.112660 1.078534 1.218695
P_10 1.157471 1.215607 1.213478 1.202839 1.165066 1.099441
P_10 1.112538 1.037393 1.012017 1.037742 0.980360 1.021378
P_10 0.955102 1.036055 0.970414 0.989050 0.980578 0.995095
P_10 1.052217 1.109917 1.067127 1.032993 0.999079 1.029728
P_10 1.037740 0.994199 1.003607 0.928673 0.848328 0.813240
P_10 0.674843 0.604068 0.527804 0.455545 0.440859 0.449451
P_10 0.465491 0.488106 0.541457 0.565938 0.716122 0.781989
P_10 0.886307 1.012851 1.039240 1.215328 1.265937 1.365211
P_10 1.325433 1.339081 1.466458 1.371478 1.150743 1.208475
P_10 1.138316 1.090764 1.135643 1.123286 1.090328 0.952479
P_10 1.080557 1.072150 1.058160 1.075774 1.101809 1.036501
P_10 1.114229 1.116203 1.039436 1.018074 1.108024 0.989966
P_10 1.015320 0.869781 0.906635 0.844530 0.804618 0.773079
P_10 0.713168 0.676033 0.604368 0.499060 0.502790 0.474173
P_10 0.422834 0.459210 0.471960 0.520081 0.534309 0.586351
P_10 0.660494 0.721720 0.829038 0.881849 0.921000 0.989265
P_10 1.051583 1.079664 1.128679 1.193641 1.231933 1.127925
P_10 1.138925 1.164590 1.124411 1.085779 1.223347 1.162078
P_10 0.991999 1.106281 1.135770 1.103965 1.033506 0.998538
P_10 1.106298 0.994939 1.003648 1.002249 0.999680 1.018969
P_10 0.959509 0.852391 0.804380 0.720538 0.733173 0.742124
P_10 0.664795 0.617070 0.582788 0.562242 0.521319 0.459809
P_10 0.450469 0.457055 0.474617 0.446405 0.467200 0.514216
P_10 0.608037 0.582224 0.621362 0.683109 0.650770 0.824839
P_10 0.888057 0.968481 0.984533 1.087307 1.032373 1.037950
P_10 1.068830 1.010755 1.118943 0.959658 1.054596 0.964234
P_10 0.909565 0.879270 0.920832 0.884993 0.929167 0.999221
P_10 0.973722 1.078317 1.006437 0.965013 0.908414 0.931293
P_10 0.987745 0.992239 0.929326 0.777234 0.793543 0.713366
P_10 0.601648 0.527562 0.527175 0.449302 0.394909 0.403999
P_10 0.436976 0.455969 0.503282 0.545797 0.612431 0.661631
P_10 0.699725 0.812566 0.933147 1.053140 1.099081 1.226708
P_10 1.263567 1.336149 1.260355 1.300110 1.340906 1.312875
P_10 1.219010 1.078631 1.066174 1.068186 0.929022 0.883450
P_10 0.869426 0.920948 0.837397 0.943595 0.952684 1.000702
P_10 0.964723 1.047980 1.044018 1.199427 1.169348 1.107765
P_10 1.067132 1.045968 1.068572 0.848759 0.853639 0.712794
P_10 0.733153 0.612039 0.531348 0.498222 0.446000 0.401664
P_10 0.432519 0.473081 0.481394 0.477226 0.634804 0.686010
P_10 0.763348 0.851876 0.888585 1.002826 1.053960 1.154684
P_10 1.135000 1.187409 1.274320 1.271869 1.076446 1.167094
P_10 1.211387 1.130463 1.151992 1.017255 1.093326 0.980505
P_10 0.960787 0.947328 0.965001 0.912088 0.945577 1.070157
P_10 1.050052 1.163667 1.113115 1.045380 1.114430 1.077589
P_10 1.177913 0.948333 0.992777 0.891522 0.892020 0.786082
P_10 0.647471 0.580905 0.530530 0.471314 0.437589 0.440096
P_10 0.433574 0.411847 0.449812 0.552048 0.603039 0.696288
P_10 0.858243 0.835539 0.969400 1.141281 1.060774 1.185103
P_10 1.123966 1.160728 1.399597 1.256528 1.174457 1.178035
P_10 1.120760 1.309981 1.046213 1.167033 1.044112 1.107277
P_10 1.073244 1.103579 0.988067 0.978487 1.087600 0.964585
P_10 1.088846 1.103360 1.095547 1.162176 1.037989 1.042042
P_10 1.116185 0.966454 0.964980 0.952956 0.869174 0.764631
P_10 0.672349 0.624193 0.555564 0.447483 0.443790 0.446036
P_10 0.448591 0.436942 0.483941 0.636198 0.660708 0.764156
P_10 0.904413 0.916284 1.005375 1.040535 1.282339 1.139098
P_10 1.282178 1.211106 1.168035 1.203340 1.202084 1.252046
P_10 1.181379 1.102771 1.024024 0.977377 1.010298 0.990589
P_10 1.007044 0.882427 0.911050 1.018714 0.980344 1.042592
P_10 1.094584 1.088151 1.091415 1.121168 1.104515 1.138120
P_10 1.121889 0.990251 1.050326 0.932040 0.878324 0.749692
P_10 0.768057 0.611763 0.527376 0.531538 0.499775 0.441153
P_10 0.401239 0.471971 0.551972 0.583114 0.699729 0.746089
P_10 0.995762 1.107755 1.197613 1.217455 1.220252 1.419768
P_10 1.328765 1.347275 1.366241 1.335435 1.206962 1.219120
P_10 1.194790 1.149941 1.146988 1.098724 0.969195 1.156016
P_10 1.023400 1.023582 1.048473 1.062030 1.003547 1.056725
P_10 1.119810 1.087698 1.079394 0.994865 1.059894 1.087407
P_10 1.124024 0.946730 0.948265 0.870436 0.809345 0.818502
P_10 0.748078 0.690727 0.649956 0.580616 0.490241 0.491817
P_10 0.473327 0.470665 0.467892 0.513205 0.537282 0.570150
P_10 0.683775 0.776383 0.856988 0.958430 0.916434 1.086859
P_10 1.023759 1.087887 1.159859 1.120690 1.171512 1.172295
P_10 1.278067 1.139423 1.214934 1.020630 1.091787 0.971634
P_10 1.026719 1.022252 0.938070 1.149626 1.083739 1.091421
P_10 1.100681 1.105282 1.027864 1.098373 0.855977 0.977097
P_10 0.914598 0.917804 0.790043 0.742701 0.806709 0.619723
P_10 0.664116 0.629483 0.551522 0.560490 0.539735 0.492283
P_10 0.425122 0.460965 0.497991 0.458193 0.462837 0.539255
P_10 0.540965 0.590563 0.698234 0.742809 0.721733 0.919808
P_10 1.018737 1.041932 1.069479 1.024996 1.074237 1.085089
P_10 1.138929 0.976714 1.028949 1.037810 1.007457 0.981126
P_10 1.047829 0.934045 1.016187 0.943414 0.990944 1.030205
P_10 0.996476 1.042476 1.042197 1.069742 1.069530 0.926833
P_10 1.033586 0.965069 0.958481 0.899737 0.778503 0.672441
P_10 0.680038 0.597031 0.530472 0.457998 0.433089 0.437147
P_10 0.399709 0.412920 0.508696 0.533859 0.604326 0.667520
P_10 0.810669 0.763734 0.996253 1.102876 1.167215 1.187938
P_10 1.255792 1.176422 1.257823 1.367740 1.358060 1.290179
P_10 1.196107 1.260957 1.138648 1.031710 1.058406 1.008749
P_10 0.866262 0.899625 0.935094 0.912863 0.958877 1.024999
P_10 1.085662 1.112075 1.154334 1.072329 1.095126 1.183272
P_10 1.113784 1.025716 1.026412 0.910020 0.841831 0.821574
P_10 0.661872 0.646601 0.558521 0.466192 0.460115 0.471045
P_10 0.414754 0.462772 0.541201 0.556632 0.658211 0.733401
P_10 0.792837 0.929406 0.937187 1.042281 1.182391 1.175919
P_10 1.238752 1.198607 1.404866 1.281384 1.270047 1.261981
P_10 1.131735 1.067422 1.134270 1.084786 1.074953 1.015972
P_10 1.028466 1.018481 0.947900 0.920705 0.992617 1.049806
P_10 1.022547 1.156153 1.153562 1.158908 1.135809 1.183656
P_10 1.079111 1.111749 0.970627 0.941750 0.832799 0.697764
P_10 0.650629 0.593892 0.549304 0.450873 0.440991 0.382013
P_10 0.441511 0.417934 0.531185 0.534199 0.651615 0.790094
P_10 0.864490 0.962115 0.969046 1.166925 1.177223 1.282219
P_10 1.202378 1.249289 1.382227 1.336712 1.313264 1.251713
P_10 1.191529 1.163891 1.113935 1.126067 1.025910 0.978582
P_10 0.982687 1.129061 0.962546 0.963988 1.045315 1.033933
P_10 1.083476 1.125245 1.067139 1.140957 1.095778 1.105793
P_10 1.107470 1.000567 1.017059 0.900509 0.723454 0.830641
P_10 0.693424 0.645619 0.576341 0.465671 0.421911 0.458673
P_10 0.439859 0.439238 0.512788 0.499170 0.672432 0.738929
P_10 0.823243 0.862590 0.918105 1.105522 1.125665 1.216610
P_10 1.169018 1.230184 1.284880 1.239477 1.225656 1.429205
P_10 1.141881 1.039280 1.111946 1.052684 0.970000 1.038885
P_10 1.011422 1.041358 0.976617 0.950068 1.102047 1.123687
P_10 1.086903 1.117589 1.190695 1.147953 1.043902 1.116929
P_10 1.043128 1.084330 0.983985 0.858442 0.872734 0.753065
P_10 0.785323 0.659573 0.597501 0.535526 0.480717 0.439202
P_10 0.433567 0.493410 0.483798 0.649974 0.707747 0.806289
P_10 0.961612 1.062988 1.038742 1.285407 1.297800 1.426304
P_10 1.300967 1.297860 1.482195 1.335275 1.364460 1.419169
P_10 1.229671 1.308796 1.221299 1.128595 1.045290 1.152539
P_10 1.124341 1.066741 1.006207 1.046035 1.094916 1.114162
P_10 1.175076 1.089778 1.169056 1.172002 1.065471 0.948255
P_10 1.068098 0.945760 0.989312 0.864132 0.824955 0.834891
P_10 0.698915 0.707505 0.557019 0.559476 0.513718 0.503676
P_10 0.480101 0.479034 0.493880 0.499674 0.571673 0.596540
P_10 0.635997 0.752730 0.823521 0.969384 0.983743 1.124680
P_10 1.146146 1.160038 1.279482 1.212188 1.176107 1.140868
P_10 1.160971 1.274797 1.231128 1.111768 1.096277 1.149182
P_10 1.113726 1.108641 1.099315 1.065648 1.086914 1.103459
P_10 1.093750 1.129795 1.078333 1.067376 1.008296 0.963517
P_10 0.968188 0.931121 0.893017 0.785116 0.826396 0.674119
P_10 0.631943 0.656220 0.587454 0.588977 0.464147 0.539398
P_10 0.513706 0.485793 0.485633 0.454987 0.501708 0.537419
P_10 0.536872 0.592395 0.709920 0.753555 0.831855 0.873543
P_10 0.891908 1.008500 0.973212 0.978618 1.085053 0.998559
P_10 1.151883 1.099886 1.150538 1.110181 0.925230 0.974863
P_10 0.967167 1.064506 0.918692 0.940159 0.879353 1.005594
P_10 1.068430 0.947543 0.998130 1.052505 1.107154 1.038856
P_10 0.968145 0.984726 0.891725 0.890106 0.798400 0.752209
P_10 0.734743 0.556351 0.490416 0.493244 0.433200 0.494240
P_10 0.409733 0.427802 0.455712 0.543014 0.638280 0.669012
P_10 0.774597 0.896565 1.001350 1.094259 1.149370 1.198218
P_10 1.272061 1.410495 1.382483 1.445460 1.275301 1.310558
P_10 1.216431 1.220755 1.166284 1.083964 1.083949 0.987008
P_10 0.962843 0.873048 0.912322 0.928844 0.896350 0.982900
P_10 1.076797 1.123021 1.108647 1.067754 1.120997 1.147548
P_10 1.142463 1.060751 1.131640 0.972749 0.854384 0.747053
P_10 0.723520 0.615403 0.525867 0.526841 0.469299 0.407607
P_10 0.413972 0.454646 0.502103 0.499746 0.692709 0.669553
P_10 0.826643 0.910083 0.894397 1.049126 1.118122 1.284221
P_10 1.226121 1.361492 1.147333 1.397317 1.275221 1.194440
P_10 1.237291 1.306370 1.060080 1.094827 1.042703 0.937753
P_10 1.096988 1.054224 0.994202 1.048239 1.192708 1.064591
P_10 1.129618 1.242249 1.147420 1.213293 1.205536 1.181784
P_10 1.120626 1.047499 1.022053 1.055399 0.838292 0.723238
P_10 0.651079 0.573174 0.556772 0.438424 0.438536 0.407038
P_10 0.479205 0.454645 0.509419 0.610871 0.643691 0.756394
P_10 0.830084 0.898491 1.017713 1.065626 1.235633 1.248248
P_10 1.183008 1.404666 1.296381 1.324115 1.464857 1.218212
P_10 1.372732 1.188429 1.153015 1.032928 1.100593 1.071409
P_10 1.031502 1.028424 1.070131 1.106727 1.066561 1.085438
P_10 1.133741 1.179918 1.066150 1.199925 1.118112 1.104548
P_10 1.234317 1.038593 1.057734 0.975021 0.905035 0.799794
P_10 0.760470 0.618195 0.582147 0.545066 0.478023 0.433788
P_10 0.425341 0.452388 0.522572 0.535369 0.611620 0.809913
P_10 0.781468 0.904610 1.065391 1.068432 1.177748 1.277200
P_10 1.255379 1.083805 1.143078 1.308808 1.240671 1.157632
P_10 1.254860 1.140760 1.132595 1.043438 1.029784 1.030093
P_10 1.007396 1.058410 1.054539 1.096172 1.092365 1.065283
P_10 1.096364 1.089314 1.103832 1.041909 1.240178 1.166793
P_10 1.120434 1.124620 1.111240 0.970247 0.852244 0.819919
P_10 0.695379 0.669643 0.634535 0.559950 0.469542 0.473410
P_10 0.431323 0.496494 0.587825 0.598551 0.753347 0.844621
P_10 0.853932 0.936460 1.146754 1.278804 1.275778 1.533284
P_10 1.335108 1.429592 1.498912 1.418634 1.432493 1.327062
P_10 1.322507 1.162218 1.267296 1.228557 1.038876 1.106851
P_10 1.006808 1.128750 1.073864 1.167397 1.098339 1.147208
P_10 1.136503 1.235808 1.137396 1.122318 1.212598 1.024562
P_10 1.088121 1.025501 1.109000 0.968601 0.823601 0.868064
P_10 0.779084 0.732052 0.635468 0.578389 0.538966 0.457204
P_10 0.535819 0.463054 0.499252 0.571540 0.612120 0.662067
P_10 0.716335 0.770414 0.848032 0.953229 1.084176 1.147820
P_10 1.058933 1.276451 1.319180 1.321847 1.329440 1.170374
P_10 1.135116 1.135315 1.224285 1.151759 1.083509 1.176692
P_10 1.147070 1.137849 1.040841 1.117603 1.098286 1.228570
P_10 1.096108 1.140357 1.047762 1.028681 1.053549 1.016327
P_10 0.937187 0.991192 0.858058 0.829705 0.788917 0.746798
P_10 0.746485 0.666164 0.631405 0.568573 0.500674 0.503061
P_10 0.497166 0.476113 0.478091 0.490355 0.505169 0.540300
P_10 0.553175 0.702557 0.746654 0.727946 0.749995 0.874055
P_10 0.890699 1.066285 1.198049 1.127151 1.145481 1.176927
P_10 1.249311 1.232028 1.097893 1.128860 1.114046 0.931773
P_10 0.951715 1.008338 0.969533 1.046314 0.925563 1.036221
P_10 1.055311 1.029328 1.053617 1.085693 1.109019 1.039377
P_10 1.029376 0.990557 1.001758 0.881101 0.830728 0.714469
P_10 0.677954 0.624608 0.570305 0.510186 0.496272 0.458196
P_10 0.443814 0.433038 0.534141 0.529799 0.681942 0.758852
P_10 0.806367 0.945933 0.993483 1.067157 1.265406 1.246903
P_10 1.270814 1.263051 1.461888 1.412829 1.510900 1.368304
P_10 1.186443 1.244036 1.182967 1.045050 1.026340 1.083473
P_10 1.022122 1.019882 0.939887 0.985865 1.032050 0.907855
P_10 1.091136 1.123774 1.189025 1.193657 1.171819 1.133769
P_10 1.125424 1.166102 1.087600 0.985017 0.877476 0.757466
P_10 0.731070 0.634490 0.543965 0.500921 0.449921 0.401904
P_10 0.460809 0.463604 0.486502 0.573983 0.614921 0.658507
P_10 0.813793 0.823008 0.953760 1.063470 1.251317 1.254088
P_10 1.277046 1.369439 1.131834 1.437569 1.323098 1.266668
P_10 1.222148 1.201903 1.193002 1.154341 1.130120 1.034542
P_10 1.052433 0.952771 1.018975 1.197408 0.985860 1.148551
P_10 1.139733 1.220394 1.199645 1.207711 1.149111 1.207614
P_10 1.221023 1.133130 0.952235 0.997368 0.898193 0.767768
P_10 0.738601 0.595083 0.533919 0.500489 0.469346 0.397601
P_10 0.460699 0.492763 0.550605 0.548146 0.738220 0.801185
P_10 0.808549 0.988677 1.094103 1.147510 1.197940 1.146623
P_10 1.262621 1.421004 1.339406 1.252642 1.266263 1.362298
P_10 1.338973 1.207856 1.106426 1.107709 1.062981 1.109334
P_10 1.059874 1.052768 0.925362 1.122041 1.053651 0.994586
P_10 1.146213 1.104877 1.070148 1.140614 1.229953 1.105795
P_10 1.127102 1.078400 1.073607 1.079693 0.959602 0.799312
P_10 0.754181 0.637200 0.559720 0.563264 0.424330 0.411583
P_10 0.476276 0.435471 0.522217 0.617073 0.673832 0.740237
P_10 0.865536 0.921279 1.062954 1.123830 1.188560 1.287221
P_10 1.267001 1.289856 1.356445 1.371353 1.208620 1.271892
P_10 1.262877 1.159295 1.158676 1.237943 1.099813 1.121359
P_10 1.123013 1.111689 1.125734 1.024708 1.127041 1.173088
P_10 1.097718 1.123681 1.188222 1.173346 1.169436 1.176817
P_10 1.158634 1.096410 1.042648 0.937766 0.874300 0.790043
P_10 0.776538 0.671379 0.571988 0.542768 0.464569 0.475740
P_10 0.504378 0.513874 0.562392 0.705040 0.693964 0.815416
P_10 0.866783 1.035045 1.148492 1.389096 1.318262 1.473378
P_10 1.498284 1.551147 1.526686 1.403238 1.430489 1.299746
P_10 1.350491 1.233545 1.119578 1.193330 1.142701 1.037901
P_10 1.046192 1.182321 1.099243 1.152655 1.118779 1.090638
P_10 1.151214 1.119025 1.227965 1.165163 1.135522 1.092753
P_10 1.052711 0.958848 0.908997 0.896203 0.932619 0.810609
P_10 0.710869 0.667615 0.667914 0.609941 0.531396 0.498425
P_10 0.504173 0.505508 0.553772 0.497502 0.564877 0.664074
P_10 0.710526 0.815193 0.893480 0.981989 0.968154 1.104444
P_10 1.160589 1.262128 1.293005 1.325584 1.213370 1.171256
P_10 1.275346 1.159333 1.123479 1.259411 1.136167 1.119721
P_10 1.240965 1.116308 1.114382 1.104290 1.150524 1.198734
P_10 1.116162 1.006297 1.153654 1.140329 1.110301 1.093102
P_10 0.968614 0.969710 1.004627 0.840707 0.779369 0.748792
P_10 0.704929 0.736435 0.612517 0.601946 0.594848 0.538028
P_10 0.504341 0.513897 0.496744 0.480688 0.470894 0.577212
P_10 0.591085 0.627852 0.725726 0.797046 0.735951 0.989074
P_10 1.024032 1.066461 1.033709 1.110375 1.211583 1.145429
P_10 1.134828 1.164736 1.034481 1.045674 1.137514 1.044741
P_10 1.072148 1.045133 0.986576 1.088413 1.003210 1.078162
P_10 1.084770 1.135251 1.103155 1.104662 1.071049 1.030715
P_10 1.081013 1.090489 1.041607 0.986982 0.834927 0.779441
P_10 0.669753 0.618480 0.558533 0.545771 0.489439 0.460493
P_10 0.433376 0.471788 0.515952 0.615425 0.625659 0.691766
P_10 0.833655 0.979225 1.018865 1.108771 1.323438 1.301932
P_10 1.341458 1.532117 1.582845 1.418146 1.353979 1.336757
P_10 1.359867 1.311672 1.143612 1.249955 1.122614 1.107750
P_10 1.064734 1.007677 0.991207 1.013005 1.069048 1.012754
P_10 1.045369 1.107965 1.147530 1.217592 1.109176 1.184971
P_10 1.196483 1.113845 1.191029 0.999786 0.919059 0.848120
P_10 0.735263 0.701068 0.600163 0.517118 0.478309 0.405167
P_10 0.463697 0.476111 0.482555 0.596481 0.670371 0.666276
P_10 0.759173 0.928601 0.985356 1.123980 1.178645 1.259328
P_10 1.295741 1.354088 1.343620 1.395694 1.278934 1.303415
P_10 1.163753 1.280848 1.169564 1.185877 1.109195 1.041167
P_10 0.988041 1.044493 1.053138 1.052812 1.038669 1.027589
P_10 1.145992 1.036235 1.203700 1.283500 1.228938 1.250586
P_10 1.105409 1.131657 1.039534 0.981704 0.971958 0.793622
P_10 0.714558 0.627734 0.550746 0.537966 0.476087 0.472725
P_10 0.442947 0.461461 0.531491 0.575589 0.735648 0.777197
P_10 0.859566 1.063569 1.149891 1.170826 1.311789 1.315214
P_10 1.266721 1.212377 1.406448 1.415782 1.454924 1.283638
P_10 1.310748 1.244417 1.178890 1.135661 1.082630 1.050649
P_10 0.983553 1.104184 1.023033 1.152774 1.040509 1.157252
P_10 1.112156 1.148750 1.322168 1.230854 1.319027 1.236684
P_10 1.190310 1.138728 0.998647 1.032750 0.952574 0.800382
P_10 0.723366 0.674728 0.617549 0.507407 0.485224 0.443072
P_10 0.456359 0.501675 0.503065 0.583355 0.710187 0.841060
P_10 0.980080 1.032024 1.055013 1.152795 1.270636 1.399962
P_10 1.292368 1.291883 1.232370 1.414878 1.236327 1.290021
P_10 1.254525 1.189417 1.103551 1.193723 1.079888 1.043166
P_10 1.004265 1.080922 1.104664 1.093710 1.074076 1.174688
P_10 1.164340 1.218576 1.183135 1.193500 1.131744 1.255464
P_10 1.159943 1.115777 1.101316 0.936260 1.035246 0.904799
P_10 0.785296 0.689638 0.667053 0.560283 0.473111 0.487114
P_10 0.479065 0.526574 0.578962 0.660825 0.726480 0.873531
P_10 1.008957 1.018443 1.066602 1.254420 1.588632 1.433608
P_10 1.490231 1.453198 1.686939 1.658042 1.547097 1.398898
P_10 1.398599 1.341267 1.201806 1.204492 1.268448 1.121877
P_10 1.083557 1.092843 1.112353 1.119897 1.125975 1.220994
P_10 1.144440 1.179636 1.147291 1.185841 1.226954 1.045534
P_10 1.016438 1.099124 0.951551 0.969531 0.904102 0.848565
P_10 0.862969 0.668829 0.632313 0.652679 0.528475 0.523394
P_10 0.517047 0.563847 0.487370 0.504624 0.596452 0.688709
P_10 0.737352 0.755988 0.946889 0.945891 0.997587 1.159625
P_10 1.122773 1.297796 1.222751 1.329271 1.248545 1.335329
P_10 1.323380 1.302116 1.255124 1.185537 1.232761 1.238871
P_10 1.134433 1.173088 1.204575 1.247334 1.127014 1.053523
P_10 1.150347 1.143644 1.067374 1.157853 1.029560 1.025647
P_10 1.003279 0.873112 0.948389 0.834267 0.781596 0.775861
P_10 0.741611 0.649236 0.675712 0.593610 0.565160 0.530977
P_10 0.466801 0.492108 0.485521 0.532520 0.562435 0.577033
P_10 0.565276 0.695161 0.755056 0.719834 0.894977 0.892159
P_10 0.982619 0.981498 1.092798 1.140168 1.033580 1.291646
P_10 1.088982 1.277615 1.155625 1.074793 1.033260 1.059373
P_10 1.132447 1.098463 1.036175 0.983854 1.047298 1.098287
P_10 1.094181 1.172695 1.183745 1.058979 1.038265 1.137973
P_10 1.162226 1.071878 1.001552 0.989296 0.845940 0.828212
P_10 0.746046 0.640064 0.610959 0.526731 0.487278 0.469021
P_10 0.491308 0.487348 0.500287 0.544496 0.655208 0.777762
P_10 0.888206 0.974250 0.961423 1.139320 1.274867 1.183866
P_10 1.412619 1.438248 1.363890 1.514153 1.442359 1.386675
P_10 1.498400 1.390081 1.292510 1.181975 1.109513 1.096660
P_10 1.019780 1.085038 0.993324 1.133825 0.989895 1.087686
P_10 1.135145 1.177846 1.204135 1.166277 1.281781 1.135528
P_10 1.163522 1.246283 1.062765 1.076996 0.952445 0.914598
P_10 0.749099 0.723386 0.616149 0.502604 0.466460 0.441055
P_10 0.457191 0.496608 0.540491 0.538273 0.693693 0.743345
P_10 0.811957 0.920895 1.112973 1.187059 1.231354 1.249165
P_10 1.403184 1.238357 1.382900 1.245075 1.379529 1.248660
P_10 1.427296 1.194746 1.131603 1.217155 1.192727 1.049665
P_10 1.038911 1.013263 1.003828 1.111792 1.129306 1.214086
P_10 1.243149 1.214371 1.092209 1.301130 1.329663 1.266986
P_10 1.263535 1.121543 1.083659 1.091005 0.955396 0.837337
P_10 0.749278 0.727986 0.575134 0.538833 0.443317 0.432538
P_10 0.462853 0.489045 0.565998 0.618437 0.649476 0.761026
P_10 0.895158 0.979042 1.041892 1.214831 1.310409 1.346774
P_10 1.411914 1.414969 1.424375 1.450379 1.311531 1.247745
P_10 1.299952 1.249144 1.249685 1.173690 1.146658 1.272983
P_10 1.194580 1.015900 1.078957 1.090155 1.123023 1.131486
P_10 1.231839 1.199293 1.137418 1.240458 1.212797 1.248180
P_10 1.124063 1.222044 1.035309 1.025155 0.938919 0.894918
P_10 0.724863 0.686850 0.610868 0.551414 0.486289 0.443956
P_10 0.467076 0.487203 0.512761 0.612652 0.698226 0.802041
P_10 0.906210 0.938408 1.105683 1.081890 1.155152 1.294438
P_10 1.246839 1.348823 1.563723 1.223923 1.331951 1.310107
P_10 1.314613 1.236648 1.113689 1.143954 1.200018 1.125422
P_10 1.063857 1.123893 1.175931 0.975999 1.138727 1.110729
P_10 1.128463 1.117952 1.247280 1.348235 1.408542 1.251182
P_10 1.163873 1.174350 1.162435 1.018701 0.994757 0.863599
P_10 0.762639 0.659776 0.644076 0.481161 0.518945 0.499355
P_10 0.544124 0.596643 0.541938 0.644945 0.736401 0.850491
P_10 0.967708 1.075288 1.183353 1.289667 1.392082 1.459677
P_10 1.664602 1.577041 1.594907 1.578401 1.439708 1.471987
P_10 1.393353 1.313503 1.142399 1.286585 1.252229 1.104047
P_10 1.093178 1.201676 1.183586 1.206601 1.251106 1.156613
P_10 1.185448 1.239295 1.223023 1.096312 1.282952 1.201587
P_10 1.130005 1.090364 0.951553 0.965449 0.931456 0.822791
P_10 0.780725 0.761845 0.694292 0.574634 0.568957 0.535374