; Filename: networks/Net1.inp
; WNTR: 0.1.6
; Created: 2019-04-09 13:24:44
[TITLE]
EPANET Example Network 1
A simple example of modeling chlorine decay. Both bulk and
wall reactions are included.

[JUNCTIONS]
;ID                      Elevation       Demand Pattern                 
 10                               710               0                            ;
 11                               710               0                            ;
 12                               700               0                            ;
 13                               695               0                            ;
 21                               700               0                            ;
 22                               695               0                            ;
 23                               690               0                            ;
 31                               700               0                            ;
 32                               710               0                            ;

[RESERVOIRS]
;ID                                   Head                  Pattern
 9                                800                            ;

[TANKS]
;ID                              Elevation           Init Level            Min Level            Max Level             Diameter           Min Volume Volume Curve        
 2                                850             120             100             150            50.5               0                        ;

[PIPES]
;ID                   Node1                Node2                              Length             Diameter            Roughness           Minor Loss               Status
 10                   10                   11                             10530              18             100               0                 Open   ;
 11                   11                   12                              5280              14             100               0                 Open   ;
 12                   12                   13                              5280              10             100               0                 Open   ;
 21                   21                   22                              5280              10             100               0                 Open   ;
 22                   22                   23                              5280              12             100               0                 Open   ;
 31                   31                   32                              5280               6             100               0                 Open   ;
 110                  2                    12                               200              18             100               0                 Open   ;
 111                  11                   21                              5280              10             100               0                 Open   ;
 112                  12                   22                              5280              12             100               0                 Open   ;
 113                  13                   23                              5280               8             100               0                 Open   ;
 121                  21                   31                              5280               8             100               0                 Open   ;
 122                  22                   32                              5280               6             100               0                 Open   ;

[PUMPS]
;ID                   Node1                Node2                Properties          
 9                    9                    10                   HEAD     1                      ;

[VALVES]
;ID                   Node1                Node2                            Diameter Type              Setting           Minor Loss

[TAGS]
;type      name       tag       

[DEMANDS]
;ID        Demand     Pattern   
10         0.0        P_10      
11         150.0      P_11      
12         150.0      P_12      
13         100.0      P_13      
21         150.0      P_21      
22         200.0      P_22      
23         150.0      P_23      
31         100.0      P_31      
32         100.0      P_32      

[STATUS]
;ID        Setting   
[PATTERNS]
;ID        Multipliers

1 1.000000 1.200000 1.400000 1.600000 1.400000 1.200000
1 1.000000 0.800000 0.600000 0.400000 0.600000 0.800000

P_10 0.589308 0.561524 0.441285 0.400298 0.381054 0.351409
P_10 0.359214 0.335375 0.395284 0.437646 0.513877 0.630816
P_10 0.802696 0.832828 0.911360 0.993122 1.035475 1.115607
P_10 1.179323 1.216636 1.304638 1.242718 1.243933 1.232847
P_10 1.233464 1.179411 1.069520 1.062727 0.962183 0.926555
P_10 0.976578 0.911428 0.827785 0.915345 0.905641 0.989692
P_10 1.030440 0.961239 0.994676 1.020447 1.045624 1.057182
P_10 1.091480 1.045280 0.958553 0.894405 0.795699 0.759236
P_10 0.659181 0.570204 0.483462 0.430307 0.359551 0.346493
P_10 0.362031 0.371368 0.416029 0.468555 0.507985 0.666358
P_10 0.733609 0.796456 0.814282 1.043803 1.107105 1.072049
P_10 1.255255 1.320298 1.237997 1.317393 1.282055 1.132120
P_10 1.177451 1.088842 1.045050 1.051078 0.958287 1.027798
P_10 0.916411 0.850789 0.899269 0.918212 0.968179 1.072786
P_10 1.048194 1.113143 1.110783 1.177255 1.103228 1.087475
P_10 1.063809 0.975161 0.922931 0.843976 0.809193 0.694312
P_10 0.606250 0.546525 0.440059 0.409109 0.399367 0.405565
P_10 0.392258 0.382790 0.411248 0.491517 0.590663 0.625684
P_10 0.775130 0.753079 0.891808 1.061180 1.042266 1.050945
P_10 1.163411 1.154718 1.222182 1.190016 1.206833 1.230515
P_10 1.065012 1.126184 1.045173 1.049582 1.009830 1.002389
P_10 0.966042 0.958897 0.975400 1.014333 1.112577 0.987859
P_10 0.939432 1.057798 1.055404 0.985407 1.176929 1.083883
P_10 1.082292 1.063082 0.875984 0.905732 0.768029 0.707077
P_10 0.686009 0.582191 0.511630 0.435293 0.428992 0.367367
P_10 0.367076 0.392888 0.461352 0.505389 0.545233 0.612752
P_10 0.716973 0.872815 0.976985 1.062487 0.964713 1.101115
P_10 1.173022 1.256799 1.129117 1.115377 1.012153 1.061402
P_10 1.157580 1.060512 1.009489 1.048497 1.009464 1.025277
P_10 0.956579 0.949326 0.982968 0.913968 1.081606 0.972664
P_10 1.047443 0.992391 1.117407 1.014340 1.111231 1.115112
P_10 1.102048 1.106194 0.898491 0.948422 0.857064 0.783027
P_10 0.644426 0.581157 0.519164 0.477469 0.386985 0.435817
P_10 0.396455 0.425145 0.509402 0.588843 0.692863 0.736274
P_10 0.840083 1.110756 1.086413 1.198665 1.316548 1.202727
P_10 1.346238 1.294371 1.320236 1.461688 1.366486 1.329752
P_10 1.276599 1.223139 1.203590 1.145956 1.043714 1.015803
P_10 1.039363 1.080362 0.967839 1.059124 1.001600 1.155603
P_10 1.003745 1.129240 1.080171 1.132336 1.024918 1.068431
P_10 1.093322 0.900969 0.950957 0.860878 0.755332 0.772996
P_10 0.721607 0.653921 0.561093 0.458811 0.447693 0.470650
P_10 0.425872 0.381762 0.438017 0.427492 0.457191 0.511461
P_10 0.567070 0.648274 0.797015 0.904031 0.957373 0.950882
P_10 1.024532 1.065904 0.973577 1.081857 1.251558 1.072247
P_10 1.068956 1.048540 1.203408 1.091165 0.954489 1.059696
P_10 1.096620 1.005950 1.073282 0.994902 1.073232 1.127933
P_10 1.117539 1.060726 0.988212 1.021750 1.010060 1.014109
P_10 0.977883 0.909327 0.846201 0.821506 0.696889 0.680465
P_10 0.648987 0.561846 0.564538 0.458261 0.427422 0.399178
P_10 0.387521 0.388124 0.392187 0.369445 0.409491 0.452705
P_10 0.497952 0.583689 0.611702 0.692729 0.717416 0.840069
P_10 0.919473 0.924014 1.017151 1.023814 1.040561 1.075894
P_10 1.109707 1.025155 0.975059 1.012837 0.913410 0.988051
P_10 0.942517 0.949371 0.929641 0.851306 0.955489 1.034466
P_10 0.993825 0.975225 1.104937 0.963278 0.906238 0.906835
P_10 0.947227 0.899571 0.873952 0.869592 0.804344 0.645990
P_10 0.588980 0.494678 0.454219 0.405300 0.340838 0.350139
P_10 0.361478 0.360166 0.375258 0.498601 0.491023 0.602675
P_10 0.711749 0.851989 0.920527 1.005036 1.093879 1.145017
P_10 1.065611 1.286427 1.426483 1.298686 1.330966 1.299991
P_10 1.165541 1.121780 1.146443 1.116883 0.971344 0.927698
P_10 0.965314 0.909403 0.992990 0.923980 0.972871 0.959554
P_10 1.022570 1.022370 1.111848 1.143225 1.191514 0.978980
P_10 1.056421 0.932134 0.919566 0.862102 0.775228 0.775016
P_10 0.685078 0.604959 0.423086 0.416786 0.397259 0.364807
P_10 0.376392 0.421652 0.433725 0.472405 0.552261 0.591003
P_10 0.776924 0.845529 0.938773 1.020621 1.055685 1.009423
P_10 1.312960 1.196298 1.143229 1.232098 1.348267 1.117885
P_10 1.196353 1.027109 1.050446 1.140925 1.047981 0.889065
P_10 0.979128 0.872210 0.891899 1.045038 1.007262 1.033584
P_10 1.114541 1.148812 1.140696 1.200828 1.154755 1.046342
P_10 1.136930 0.966980 1.117380 0.911982 0.834590 0.712995
P_10 0.636518 0.525828 0.469181 0.430170 0.386970 0.353076
P_10 0.344176 0.435472 0.448249 0.514427 0.587061 0.674403
P_10 0.747410 0.816856 1.009581 0.969213 1.150178 1.108874
P_10 1.209582 1.302529 1.232351 1.260590 1.226308 1.190694
P_10 1.196013 1.058810 1.076198 1.058792 1.090352 1.044435
P_10 1.023851 1.008814 1.082980 1.041130 1.043633 1.140656
P_10 1.133204 1.110160 1.073755 1.076660 1.113725 1.135122
P_10 0.990493 1.097998 1.009940 0.894202 0.779776 0.744039
P_10 0.608879 0.594210 0.506761 0.496171 0.392164 0.383615
P_10 0.381474 0.413236 0.445154 0.504136 0.592004 0.644387
P_10 0.762237 0.800811 1.032480 1.040468 0.959036 1.131376
P_10 1.121858 1.130690 1.207098 1.156523 1.074085 1.181390
P_10 1.048478 1.170560 1.041908 1.017203 0.915765 1.016898
P_10 0.919566 1.026613 1.040988 0.953893 0.957738 0.990075
P_10 1.055639 1.103094 1.074666 1.141482 1.139777 1.077304
P_10 1.113796 0.958725 0.936208 0.971298 0.876586 0.719650
P_10 0.641611 0.577969 0.540484 0.447790 0.427909 0.426266
P_10 0.438421 0.426609 0.478442 0.642186 0.715613 0.781626
P_10 0.975591 0.950433 1.129419 1.307480 1.282178 1.367829
P_10 1.365253 1.286331 1.309611 1.338097 1.275369 1.373199
P_10 1.208342 1.225716 1.198117 1.105545 1.064482 1.017546
P_10 1.025270 1.025623 1.087278 1.051223 1.098817 1.077615
P_10 1.050006 1.066058 1.132002 1.182767 1.106222 1.056919
P_10 1.041872 0.940488 0.955237 0.889087 0.818620 0.826968
P_10 0.725835 0.683368 0.601634 0.518136 0.460459 0.483480
P_10 0.455036 0.402455 0.421163 0.492756 0.478610 0.491046
P_10 0.705632 0.680025 0.759166 0.805237 0.968554 0.964412
P_10 1.158169 1.147466 1.119183 1.135781 1.144301 1.099339
P_10 1.205328 1.166769 1.005676 1.112398 1.103133 1.104335
P_10 0.992043 1.139575 1.061995 1.110149 1.086637 1.033677
P_10 1.048427 1.047052 1.042949 1.087178 1.075915 0.911454
P_10 0.926522 0.824114 0.861546 0.827830 0.757808 0.647045
P_10 0.608298 0.571130 0.544289 0.491033 0.461446 0.392595
P_10 0.430130 0.400979 0.439884 0.414384 0.453887 0.456875
P_10 0.520747 0.533011 0.655487 0.701259 0.819166 0.788825
P_10 0.895269 0.931206 0.944136 1.016028 0.996398 1.082166
P_10 1.024180 1.069008 1.007630 1.031553 0.982867 0.963971
P_10 0.932410 0.980734 0.893936 0.991632 0.956163 0.988485
P_10 1.053415 0.941076 1.026023 1.025477 1.014092 0.988949
P_10 0.997461 0.959548 0.884810 0.770844 0.827420 0.654577
P_10 0.643476 0.517203 0.460905 0.407778 0.378388 0.389934
P_10 0.349570 0.382612 0.441797 0.454979 0.569343 0.648720
P_10 0.783092 0.844691 0.993018 1.036441 1.155288 1.193137
P_10 1.254961 1.183795 1.287003 1.370193 1.230200 1.336297
P_10 1.278365 1.189466 1.170693 1.020561 0.982499 1.002182
P_10 0.968342 0.907830 0.876370 1.009240 0.838426 1.026856
P_10 1.141923 1.087398 1.077797 1.222294 1.153779 1.106278
P_10 1.037922 1.017173 1.062312 0.989221 0.817251 0.828712
P_10 0.618209 0.580488 0.527012 0.457719 0.402024 0.372372
P_10 0.378291 0.404201 0.432225 0.472496 0.573618 0.669172
P_10 0.725551 0.840706 1.018081 1.019922 1.145622 1.090258
P_10 1.272767 1.243708 1.194165 1.187990 1.181854 1.202563
P_10 1.211257 1.170800 1.174851 1.084244 0.949904 0.971255
P_10 0.959050 0.977775 1.068013 0.913111 0.989431 1.016931
P_10 1.081681 1.106201 1.086231 1.108152 1.328827 1.074387
P_10 1.198444 0.950151 1.014480 0.908770 0.792491 0.719734
P_10 0.569095 0.519594 0.441581 0.446120 0.387221 0.395302
P_10 0.366653 0.410145 0.404683 0.523360 0.579666 0.697297
P_10 0.769292 0.819637 0.996903 0.932179 1.044860 1.132371
P_10 1.240928 1.161147 1.134569 1.162373 1.227775 1.180704
P_10 1.165856 1.178477 1.108481 1.060888 1.024981 1.029705
P_10 0.991580 0.988485 1.038895 0.978597 1.060555 1.101816
P_10 1.039036 0.979625 1.050036 1.205107 1.127726 1.244826
P_10 1.085975 0.971589 0.955602 0.950701 0.894283 0.774172
P_10 0.735309 0.586112 0.483189 0.433499 0.399118 0.397585
P_10 0.379949 0.395730 0.464746 0.515680 0.644280 0.685157
P_10 0.755753 0.860037 1.020850 1.052487 1.143010 1.228030
P_10 1.255594 1.295977 1.272623 1.196514 1.223747 1.164435
P_10 1.144083 1.130258 1.128525 1.063065 0.952007 1.008079
P_10 0.988172 0.936146 1.073090 0.971910 0.969710 1.044386
P_10 1.074150 1.034601 1.145738 1.123640 1.081785 1.126531
P_10 1.137390 1.060872 1.044810 1.023970 0.839298 0.798986
P_10 0.722449 0.584460 0.534834 0.485450 0.408067 0.411175
P_10 0.408883 0.457249 0.507521 0.614756 0.655069 0.850688
P_10 0.920923 1.004847 1.083910 1.183910 1.245845 1.448306
P_10 1.399066 1.482555 1.505006 1.518396 1.338681 1.252434
P_10 1.195282 1.186285 1.100105 1.128172 1.111417 1.146250
P_10 1.064957 1.001069 1.089784 1.055869 1.090843 1.078685
P_10 1.069949 1.006963 1.118621 1.148612 1.040364 1.065560
P_10 1.047731 1.070941 1.019031 0.878880 0.844663 0.869447
P_10 0.693302 0.661092 0.606409 0.523250 0.519600 0.426413
P_10 0.391926 0.410883 0.469149 0.514165 0.475400 0.546665
P_10 0.651551 0.701316 0.769628 0.908076 1.037279 1.089431
P_10 1.137218 1.176773 1.150832 1.143705 1.235967 1.206528
P_10 1.255633 1.152995 1.082518 1.086671 1.036373 1.016118
P_10 1.051708 1.064699 1.072346 1.044644 1.111648 1.177505
P_10 1.027493 1.058196 1.129007 1.039677 0.938364 1.041477
P_10 0.943681 0.963994 0.801808 0.761442 0.731308 0.687960
P_10 0.683951 0.550019 0.576748 0.545878 0.480302 0.407153
P_10 0.422169 0.431303 0.439946 0.452899 0.451612 0.436004
P_10 0.457824 0.532817 0.597328 0.708854 0.697095 0.796443
P_10 0.933191 0.933061 1.072104 1.081609 1.071586 1.110322
P_10 1.149614 1.106373 0.967148 1.005927 1.005424 0.966794
P_10 0.954406 1.027127 0.999548 1.030804 0.947012 0.958276
P_10 0.984471 0.980820 1.041978 1.008526 1.130247 0.997036
P_10 0.978838 0.957303 1.039495 0.877580 0.836897 0.595121
P_10 0.591574 0.535960 0.443090 0.437810 0.404429 0.366965
P_10 0.369393 0.391590 0.448902 0.522660 0.542778 0.608591
P_10 0.725073 0.909913 0.971866 0.913983 1.133177 1.217627
P_10 1.294595 1.394614 1.337558 1.315887 1.215397 1.305983
P_10 1.298750 1.233429 1.130770 1.046452 1.010756 1.025511
P_10 1.000884 1.006518 0.840240 0.956413 0.955411 1.024846
P_10 1.016018 1.059120 1.108263 1.157822 1.222553 1.152698
P_10 1.074363 1.122381 1.068111 0.911382 0.911984 0.755506
P_10 0.643136 0.564637 0.506178 0.420555 0.408663 0.383077
P_10 0.365316 0.424781 0.430694 0.503331 0.554395 0.657943
P_10 0.747731 0.843030 0.990362 1.071526 1.090804 1.126098
P_10 1.244631 1.239314 1.369536 1.137238 1.295092 1.258881
P_10 1.148404 1.127461 1.192891 1.095221 0.993027 1.033589
P_10 1.036555 1.016253 1.011284 1.064619 1.115417 1.080352
P_10 1.084786 1.134728 1.248211 1.134319 1.315211 1.172865
P_10 1.149569 1.104103 1.049363 0.965760 0.911401 0.731765
P_10 0.686611 0.541006 0.497858 0.419118 0.408557 0.391825
P_10 0.407327 0.429393 0.448080 0.491214 0.616725 0.701562
P_10 0.824579 0.864730 0.951220 1.044829 1.164335 1.101121
P_10 1.212797 1.182742 1.204826 1.197772 1.200642 1.230030
P_10 1.189839 1.264660 1.094859 1.217457 1.087520 1.018527
P_10 0.967680 0.997398 1.060448 1.066446 1.034706 0.979050
P_10 1.092982 1.090893 1.089686 1.178102 1.097036 1.098764
P_10 1.099432 1.110918 1.047296 0.965425 0.819173 0.677226
P_10 0.684459 0.538995 0.533049 0.441699 0.409589 0.410450
P_10 0.373707 0.392005 0.465369 0.564590 0.618615 0.655672
P_10 0.839243 0.874925 0.984876 1.014966 1.153991 1.220507
P_10 1.324459 1.229326 1.239362 1.281357 1.226659 1.306547
P_10 1.133438 1.041775 1.157710 0.977405 1.006849 0.987078
P_10 0.987005 1.037567 1.076033 1.085172 1.082292 1.042012
P_10 1.052251 1.229140 1.104432 1.223357 1.196654 1.036000
P_10 1.060378 1.084262 1.071367 0.972654 0.915494 0.777380
P_10 0.658732 0.626452 0.514011 0.560284 0.488866 0.406434
P_10 0.466311 0.443891 0.513897 0.536326 0.650350 0.843613
P_10 0.894056 0.997623 1.200550 1.270587 1.325834 1.394133
P_10 1.461257 1.256277 1.498899 1.388965 1.455461 1.294639
P_10 1.232046 1.252484 1.154877 1.154167 1.137799 1.121390
P_10 1.117366 1.095622 1.015727 1.120154 1.040512 1.117706
P_10 1.115267 1.125336 1.207964 1.261003 1.096439 1.200208
P_10 1.030461 1.006482 1.020721 0.910317 0.858975 0.804239
P_10 0.705798 0.676496 0.596431 0.518763 0.503266 0.417982
P_10 0.443161 0.410452 0.436571 0.486227 0.519877 0.627427
P_10 0.665472 0.759698 0.781743 0.977162 0.967342 1.066281
P_10 1.121126 1.109087 1.120652 1.240898 1.206175 1.231506
P_10 1.182354 1.195375 1.188947 1.171883 1.086261 1.167632
P_10 1.099973 1.161451 1.132717 1.157122 1.112847 1.133529
P_10 1.221898 1.121736 1.142195 1.062617 1.088585 0.988946
P_10 1.007070 0.960133 0.891452 0.832771 0.759897 0.686469
P_10 0.625821 0.630625 0.553627 0.532656 0.505575 0.429696
P_10 0.432683 0.433206 0.405153 0.426680 0.425451 0.476503
P_10 0.538137 0.571299 0.640676 0.702572 0.864471 0.846413
P_10 0.941469 0.981745 0.964468 1.155090 1.198349 1.037155
P_10 1.034655 1.144917 1.085935 1.092009 1.023044 1.088746
P_10 1.100437 0.979616 0.964145 0.994396 0.977593 0.974239
P_10 0.980600 0.978897 1.123922 1.078651 0.954673 1.018260
P_10 1.130323 1.048633 0.883413 0.962648 0.869488 0.711358
P_10 0.668278 0.575755 0.514352 0.438781 0.416212 0.407089
P_10 0.416462 0.427798 0.454269 0.515470 0.565140 0.595520
P_10 0.844176 0.832703 1.097221 1.014249 1.260838 1.148440
P_10 1.344033 1.269308 1.381740 1.376412 1.545293 1.288464
P_10 1.277239 1.206784 1.017048 1.092665 1.031006 1.024241
P_10 0.981450 0.959466 0.913600 1.006753 1.030805 0.992255
P_10 1.155237 1.188424 1.215636 1.119229 1.157365 1.250729
P_10 1.040635 1.079429 1.085794 0.921779 0.932495 0.820278
P_10 0.670724 0.610249 0.541427 0.461020 0.437899 0.382908
P_10 0.379969 0.400766 0.452943 0.493197 0.630880 0.682732
P_10 0.743798 0.906187 0.925327 1.128969 1.096572 1.240065
P_10 1.214674 1.276037 1.227334 1.285996 1.180590 1.209778
P_10 1.312107 1.241364 1.078244 1.133454 1.076153 1.033107
P_10 1.033421 0.946297 0.996256 1.039253 1.060016 1.018906
P_10 1.224793 1.224433 1.140759 1.185186 1.224306 1.189767
P_10 1.136280 0.992087 1.023159 0.989783 0.938059 0.833210
P_10 0.661344 0.568530 0.507217 0.413036 0.402796 0.409541
P_10 0.397366 0.394471 0.416135 0.572568 0.578132 0.766244
P_10 0.902468 0.936418 0.914244 1.056986 1.009767 1.214567
P_10 1.155828 1.214540 1.279622 1.269684 1.300914 1.201574
P_10 1.244723 1.238629 1.135471 1.218619 1.194939 1.092097
P_10 1.024097 1.002318 1.136679 1.074102 1.096565 1.106262
P_10 1.132084 1.122643 1.185053 1.171529 1.113959 1.153049
P_10 1.159579 1.020578 0.991084 0.996257 0.886496 0.803746
P_10 0.716784 0.613657 0.560304 0.466701 0.398086 0.398061
P_10 0.438010 0.421841 0.530159 0.550672 0.642329 0.749322
P_10 0.824224 0.940572 1.011273 0.955554 1.183087 1.174197
P_10 1.267587 1.250176 1.267836 1.325509 1.162695 1.166732
P_10 1.210241 1.117518 1.197797 1.036769 1.047493 1.028234
P_10 1.071126 1.076265 0.974046 1.055721 1.185421 1.270340
P_10 1.147759 1.107542 1.195313 1.156745 1.131743 1.157550
P_10 1.079246 1.079033 1.004237 0.957445 0.921051 0.847650
P_10 0.711402 0.612244 0.578357 0.500646 0.508058 0.423798
P_10 0.432015 0.428901 0.606807 0.575799 0.683238 0.779749
P_10 0.974467 1.052201 1.204341 1.173813 1.317898 1.339990
P_10 1.537104 1.392159 1.446632 1.557351 1.394025 1.420519
P_10 1.379715 1.166376 1.327888 1.143542 1.183497 1.206574
P_10 1.177603 1.074615 1.136955 1.109818 1.037418 0.998979
P_10 1.143550 1.156766 1.090309 1.161197 1.099542 1.119954
P_10 1.154214 1.107480 0.890835 0.946822 0.842665 0.846566
P_10 0.707420 0.671492 0.680509 0.544903 0.495706 0.480396
P_10 0.447969 0.469022 0.434478 0.457117 0.515986 0.587415
P_10 0.700437 0.724933 0.769869 0.929276 0.912552 1.021251
P_10 1.188092 1.111956 1.252913 1.153055 1.248108 1.318684
P_10 1.160970 1.194490 1.192583 1.193187 1.202165 1.159674
P_10 1.155890 1.052060 1.061138 1.239932 1.110762 1.173465
P_10 1.122264 1.157351 1.164091 1.076283 1.107326 0.979890
P_10 1.041011 0.894902 0.887588 0.925516 0.780791 0.722484
P_10 0.718015 0.604602 0.552476 0.519845 0.486881 0.431745
P_10 0.394917 0.421105 0.439165 0.430925 0.425752 0.480868
P_10 0.516847 0.581330 0.673281 0.717222 0.778367 0.789760
P_10 0.907297 1.036217 1.065282 1.113902 1.230938 1.221745
P_10 1.182503 1.149469 1.108177 1.081028 1.029177 1.131285
P_10 0.921045 1.030036 0.949039 1.109465 1.004953 1.050593
P_10 0.923973 1.056801 0.984055 1.044625 0.949913 1.143151
P_10 1.107613 1.031586 0.995143 0.974192 0.763997 0.725493
P_10 0.630890 0.575444 0.524766 0.446865 0.411340 0.394719
P_10 0.339425 0.415950 0.493132 0.472473 0.604429 0.729928
P_10 0.787278 0.945310 0.961922 1.146106 1.248886 1.209445
P_10 1.431622 1.293915 1.337806 1.364125 1.431671 1.448305
P_10 1.353176 1.287818 1.228770 1.140521 1.108547 0.988638
P_10 1.103369 1.021058 0.910097 1.010045 1.124331 1.089195
P_10 1.157622 1.218323 1.099206 1.091034 1.232065 1.238498
P_10 1.107545 1.164766 1.010814 0.901638 0.889461 0.890195
P_10 0.712484 0.593628 0.556149 0.483934 0.394653 0.369414
P_10 0.393785 0.406229 0.435184 0.496604 0.647601 0.686510
P_10 0.757320 0.854510 0.993756 1.037898 1.127928 1.334659
P_10 1.242016 1.311432 1.423326 1.435774 1.140004 1.252451
P_10 1.206649 1.123996 1.047255 1.021818 1.142890 1.038044
P_10 0.982160 0.997224 1.133920 1.106903 1.038548 1.042515
P_10 1.049690 1.238872 1.357555 1.265514 1.178863 1.212855
P_10 1.232632 0.980180 0.938952 1.004350 0.844514 0.765636
P_10 0.719530 0.604781 0.545591 0.477926 0.452058 0.406279
P_10 0.414253 0.429330 0.494528 0.570633 0.617902 0.671690
P_10 0.701316 0.816622 0.958698 1.071367 1.099134 1.215921
P_10 1.276697 1.315494 1.323562 1.349611 1.244901 1.455018
P_10 1.216955 1.194407 1.304565 1.212171 1.162704 1.235311
P_10 1.071259 0.998217 1.077275 1.065040 1.117230 1.052017
P_10 1.211620 1.214505 1.194999 1.137291 1.254668 1.135321
P_10 1.143262 1.100064 0.950432 0.941377 0.832058 0.768225
P_10 0.669993 0.707661 0.527280 0.463954 0.403095 0.421378
P_10 0.442230 0.476107 0.489150 0.528222 0.603077 0.802571
P_10 0.832690 0.926084 0.982844 1.068090 1.275145 1.259301
P_10 1.171418 1.256165 1.282721 1.318305 1.300015 1.277350
P_10 1.122409 1.114167 1.179919 1.055016 1.141739 1.069740
P_10 1.035539 0.991835 1.132763 0.947831 1.163091 1.173516
P_10 1.062461 1.073363 1.199477 1.214510 1.133854 1.142052
P_10 1.063516 1.086647 1.036165 0.971032 0.880484 0.774658
P_10 0.727714 0.651751 0.554545 0.521240 0.424247 0.496234
P_10 0.447929 0.463004 0.581039 0.592291 0.707974 0.833945
P_10 0.910497 0.984337 1.160551 1.217398 1.393213 1.428739
P_10 1.323177 1.443041 1.549977 1.472226 1.419012 1.384714
P_10 1.279289 1.241261 1.356288 1.176061 1.180919 1.050287
P_10 1.161521 1.068507 1.255313 1.218505 1.092988 1.146352
P_10 1.104654 1.249492 1.236320 1.220954 1.227996 1.111339
P_10 1.103252 1.050926 1.095877 0.862861 0.834978 0.862521
P_10 0.744363 0.726196 0.653645 0.568696 0.532516 0.526717
P_10 0.475093 0.403157 0.463997 0.465516 0.550517 0.540626
P_10 0.718328 0.778340 0.857764 0.882591 0.997771 1.052078
P_10 1.222403 1.237321 1.269876 1.369311 1.184642 1.286178
P_10 1.237557 1.323514 1.288785 1.157319 1.121181 1.147471
P_10 1.182411 1.189830 1.118758 1.127702 1.235021 1.129427
P_10 1.253192 1.067648 1.125753 1.073287 1.113108 1.045742
P_10 1.078056 1.018629 0.829732 0.946254 0.798380 0.729230
P_10 0.661334 0.677007 0.582580 0.564579 0.486623 0.474711
P_10 0.438829 0.468783 0.404168 0.453213 0.476386 0.544974
P_10 0.514655 0.574943 0.659537 0.795113 0.785769 0.907944
P_10 0.876820 0.987228 1.124877 1.098455 1.145413 1.058674
P_10 1.176085 1.171664 1.048282 1.146465 1.133280 0.862783
P_10 1.073517 1.098934 1.009541 1.059866 0.962755 1.038931
P_10 1.124798 1.037824 1.137282 1.176095 1.066433 1.061474
P_10 1.022049 1.134032 0.975154 0.955125 0.816141 0.742676
P_10 0.627988 0.591559 0.488561 0.454720 0.419617 0.419887
P_10 0.406047 0.421347 0.475805 0.541509 0.600569 0.696912
P_10 0.784960 0.915151 1.036005 1.057128 1.371338 1.351292
P_10 1.498145 1.483127 1.521716 1.581531 1.394522 1.367886
P_10 1.388448 1.381807 1.189150 1.105989 1.077335 1.008153
P_10 1.038513 1.005296 0.970149 1.056620 1.016469 1.002812
P_10 1.197227 1.121975 1.201061 1.187395 1.152338 1.201187
P_10 1.171745 1.113570 1.211819 0.929950 0.928477 0.805823
P_10 0.738187 0.611470 0.514462 0.489222 0.430492 0.402984
P_10 0.377365 0.404431 0.441023 0.532153 0.652351 0.700022
P_10 0.833602 0.923893 1.008536 1.081114 1.244690 1.206299
P_10 1.194225 1.291261 1.353919 1.336665 1.360133 1.221206
P_10 1.258165 1.217020 1.183982 1.057745 1.095876 1.039051
P_10 1.101173 1.042648 1.072241 0.981424 1.181072 1.182119
P_10 1.183815 1.221236 1.313979 1.295189 1.318629 1.302366
P_10 1.206399 1.093430 1.027225 1.134200 0.981629 0.760682
P_10 0.706516 0.590646 0.531272 0.458914 0.443105 0.402281
P_10 0.419817 0.460882 0.498881 0.538826 0.675580 0.667603
P_10 0.872983 0.891788 0.984599 1.082877 1.224167 1.296654
P_10 1.274326 1.320770 1.319216 1.304165 1.287801 1.186308
P_10 1.232883 1.224172 1.178310 1.153982 1.118429 1.104396
P_10 1.095039 1.146300 1.164784 1.208740 1.035607 1.150083
P_10 1.080590 1.148754 1.269942 1.356393 1.204966 1.185377
P_10 1.174150 1.055418 1.014789 1.023374 0.849428 0.857202
P_10 0.703543 0.619686 0.589816 0.494875 0.445155 0.439500
P_10 0.392561 0.443006 0.472557 0.577018 0.605371 0.773937
P_10 0.936136 1.033268 1.112625 1.060876 1.191841 1.198047
P_10 1.279583 1.357626 1.354321 1.291987 1.338419 1.248536
P_10 1.146051 1.291754 1.166153 1.201513 1.134114 0.999446
P_10 1.090811 1.082187 1.100521 1.040203 1.132233 1.110147
P_10 1.214271 1.126034 1.206645 1.233572 1.168976 1.230362
P_10 1.252766 1.200431 1.051834 0.993185 0.954820 0.780110
P_10 0.713681 0.646177 0.550905 0.514364 0.473029 0.424661
P_10 0.463708 0.452185 0.547617 0.623341 0.722248 0.902014
P_10 0.975968 1.161459 1.124432 1.322039 1.514732 1.365255
P_10 1.471664 1.529062 1.655248 1.539245 1.375139 1.493516
P_10 1.462732 1.447574 1.231229 1.058019 1.162010 1.200197
P_10 1.122928 1.215396 1.157881 1.213060 1.127506 1.150629
P_10 1.233422 1.164054 1.128502 1.283479 1.175602 1.191448
P_10 1.117003 1.104445 0.974530 0.909300 0.875779 0.861831
P_10 0.836274 0.680079 0.603033 0.630714 0.482570 0.471659
P_10 0.462301 0.437267 0.454854 0.550450 0.491520 0.588869
P_10 0.713779 0.793838 0.797659 0.953549 1.046913 1.108999
P_10 1.176515 1.147672 1.128506 1.301327 1.360271 1.365745
P_10 1.230796 1.311876 1.223332 1.224398 1.173352 1.135842
P_10 1.092810 1.151543 1.188225 1.140450 1.275653 1.080791
P_10 1.063656 1.093697 1.036254 1.094323 1.075716 1.134995
P_10 0.948051 0.998844 0.879216 0.857983 0.792432 0.761030
P_10 0.740089 0.649770 0.586683 0.558928 0.508799 0.467728
P_10 0.493509 0.474927 0.478975 0.425270 0.468904 0.488744
P_10 0.552359 0.609066 0.679010 0.764860 0.781025 0.914185
P_10 0.959352 1.049235 1.197180 1.094512 1.195092 1.270164
P_10 1.228780 1.089739 1.269077 1.110426 1.115461 1.092861
P_10 1.017491 0.920982 1.096981 1.096728 1.110710 1.030395
P_10 1.117479 1.044171 1.179779 1.074157 1.146801 1.186298
P_10 1.175556 1.031657 0.947194 0.858185 0.820185 0.755347
P_10 0.718868 0.575260 0.594313 0.466327 0.441008 0.379368
P_10 0.382327 0.405641 0.455867 0.550150 0.629121 0.748215
P_10 0.843662 1.017515 1.116464 1.113152 1.257598 1.383118
P_10 1.326645 1.481211 1.499420 1.577660 1.502736 1.412644
P_10 1.375001 1.320333 1.280524 1.155774 1.222434 1.044758
P_10 0.950996 1.061096 1.003333 1.070393 1.090846 0.994055
P_10 1.206358 1.125736 1.169988 1.215828 1.154329 1.244824
P_10 1.286352 1.073165 1.113645 0.995135 0.934483 0.832774
P_10 0.726477 0.667761 0.540940 0.475131 0.444535 0.404711
P_10 0.454385 0.411161 0.465896 0.532906 0.613405 0.739653
P_10 0.793284 0.929754 1.018820 1.129663 1.230522 1.256315
P_10 1.385732 1.412411 1.368167 1.415478 1.427250 1.368631
P_10 1.195781 1.167361 1.131984 1.081834 1.087060 1.095965
P_10 1.063506 1.069630 0.985127 1.020705 1.105476 1.099259
P_10 1.149216 1.223081 1.168455 1.216678 1.156030 1.371676
P_10 1.205972 1.107719 1.120945 1.085607 0.848590 0.783369
P_10 0.780143 0.570604 0.525934 0.466748 0.409384 0.422611
P_10 0.435824 0.411359 0.556192 0.567088 0.652419 0.761796
P_10 0.826025 1.049368 1.014759 1.162337 1.246066 1.364238
P_10 1.356167 1.339855 1.430134 1.280581 1.311744 1.292416
P_10 1.287125 1.290802 1.331706 1.069085 1.064580 1.150701
P_10 1.049854 1.097818 1.196303 1.126250 1.175215 1.190761
P_10 1.197089 1.337305 1.125724 1.250108 1.232788 1.383998
P_10 1.236577 1.075131 1.107119 1.066991 0.895572 0.718703
P_10 0.671118 0.663182 0.583745 0.516952 0.458249 0.428978
P_10 0.480088 0.454524 0.520625 0.575802 0.672894 0.754917
P_10 0.963190 1.013801 1.003172 1.151862 1.371189 1.263597
P_10 1.275278 1.321610 1.338589 1.343158 1.454015 1.138877
P_10 1.310237 1.162715 1.175491 1.180293 1.042939 1.086646
P_10 1.058991 1.061679 1.145432 1.097642 1.181091 1.395754
P_10 1.172285 1.224599 1.261269 1.233095 1.271627 1.222065
P_10 1.149674 1.231517 0.985134 0.959406 0.946910 0.887071
P_10 0.803622 0.683440 0.641875 0.512652 0.432198 0.466225
P_10 0.456454 0.517847 0.520939 0.674621 0.800643 0.837152
P_10 0.976734 1.209456 1.167973 1.247413 1.378061 1.514404
P_10 1.713723 1.580742 1.541611 1.614009 1.591710 1.501762
P_10 1.448976 1.497402 1.334396 1.287835 1.256674 1.160672
P_10 1.163748 1.305118 1.113962 1.070586 1.290315 1.277479
P_10 1.255163 1.275647 1.268209 1.254719 1.178518 1.150636
P_10 1.174870 1.161543 0.995566 0.944726 0.940102 0.822694
P_10 0.774370 0.748202 0.650721 0.562444 0.587604 0.467592