; Filename: networks/Net1.inp
; WNTR: 0.1.6
; Created: 2019-04-09 13:12:07
[TITLE]
EPANET Example Network 1
A simple example of modeling chlorine decay. Both bulk and
wall reactions are included.

[JUNCTIONS]
;ID                      Elevation       Demand Pattern                 
 10                               710               0                            ;
 11                               710               0                            ;
 12                               700               0                            ;
 13                               695               0                            ;
 21                               700               0                            ;
 22                               695               0                            ;
 23                               690               0                            ;
 31                               700               0                            ;
 32                               710               0                            ;

[RESERVOIRS]
;ID                                   Head                  Pattern
 9                                800                            ;

[TANKS]
;ID                              Elevation           Init Level            Min Level            Max Level             Diameter           Min Volume Volume Curve        
 2                                850             120             100             150            50.5               0                        ;

[PIPES]
;ID                   Node1                Node2                              Length             Diameter            Roughness           Minor Loss               Status
 10                   10                   11                             10530              18             100               0                 Open   ;
 11                   11                   12                              5280              14             100               0                 Open   ;
 12                   12                   13                              5280              10             100               0                 Open   ;
 21                   21                   22                              5280              10             100               0                 Open   ;
 22                   22                   23                              5280              12             100               0                 Open   ;
 31                   31                   32                              5280               6             100               0                 Open   ;
 110                  2                    12                               200              18             100               0                 Open   ;
 111                  11                   21                              5280              10             100               0                 Open   ;
 112                  12                   22                              5280              12             100               0                 Open   ;
 113                  13                   23                              5280               8             100               0                 Open   ;
 121                  21                   31                              5280               8             100               0                 Open   ;
 122                  22                   32                              5280               6             100               0                 Open   ;

[PUMPS]
;ID                   Node1                Node2                Properties          
 9                    9                    10                   HEAD     1                      ;

[VALVES]
;ID                   Node1                Node2                            Diameter Type              Setting           Minor Loss

[TAGS]
;type      name       tag       

[DEMANDS]
;ID        Demand     Pattern   
10         0.0        P_10      
11         150.0      P_11      
12         150.0      P_12      
13         100.0      P_13      
21         150.0      P_21      
22         200.0      P_22      
23         150.0      P_23      
31         100.0      P_31      
32         100.0      P_32      

[STATUS]
;ID        Setting   
[PATTERNS]
;ID        Multipliers

1 1.000000 1.200000 1.400000 1.600000 1.400000 1.200000
1 1.000000 0.800000 0.600000 0.400000 0.600000 0.800000

P_10 0.665043 0.539442 0.479766 0.509083 0.455889 0.458234
P_10 0.450701 0.457838 0.469575 0.486089 0.594536 0.691244
P_10 0.733447 0.873792 0.891314 0.920448 1.007112 1.104708
P_10 1.143171 1.236012 1.219048 1.154271 1.207276 1.275411
P_10 1.164302 1.061859 1.119521 0.998133 1.012885 0.891139
P_10 0.953012 0.817839 0.877428 0.852245 0.963379 0.929163
P_10 1.021896 1.092518 1.021860 1.004047 1.029997 1.090396
P_10 1.040601 1.076772 0.974435 0.945473 0.837440 0.726021
P_10 0.697639 0.588813 0.524107 0.512972 0.504965 0.424080
P_10 0.429325 0.495850 0.511128 0.561151 0.586908 0.740124
P_10 0.790309 0.856412 0.995301 0.913852 1.059869 1.120955
P_10 1.052706 1.108350 1.217794 1.171278 1.176812 1.227672
P_10 1.056705 1.189689 1.008320 0.953688 0.975789 0.964410
P_10 0.948313 0.949486 0.974594 0.924508 0.954156 0.920208
P_10 0.984138 0.986216 1.130341 1.084799 1.068455 1.082425
P_10 1.051637 1.030272 0.933747 0.933312 0.852956 0.710044
P_10 0.680652 0.563645 0.554366 0.554501 0.455030 0.458268
P_10 0.474480 0.444946 0.462166 0.586757 0.666193 0.731960
P_10 0.727887 0.861478 0.924867 0.979794 1.173282 1.123413
P_10 1.050874 1.107021 1.214985 1.209688 1.210543 1.207219
P_10 0.997223 1.070981 1.106330 1.110827 1.063848 0.954503
P_10 0.984538 0.910462 1.036946 0.970953 0.992982 1.035775
P_10 0.957354 1.042065 1.029839 1.002383 1.081631 1.056598
P_10 1.061519 1.048575 0.976982 0.918554 0.850331 0.785535
P_10 0.682957 0.654513 0.561451 0.513184 0.465465 0.480674
P_10 0.460208 0.433257 0.569774 0.547513 0.680552 0.663561
P_10 0.815660 0.809151 0.926889 0.902598 1.103057 1.081351
P_10 1.101315 1.141667 1.222065 1.145643 1.150861 1.032875
P_10 0.990746 1.007772 1.112133 1.012816 0.967386 0.913738
P_10 0.970145 0.875108 0.873829 0.954495 0.978263 1.096495
P_10 0.983331 1.008048 1.062356 1.034301 0.934423 0.988872
P_10 1.090058 1.065640 0.935465 0.883987 0.832287 0.717386
P_10 0.719474 0.659949 0.562678 0.505002 0.478512 0.439393
P_10 0.461554 0.524146 0.554999 0.607581 0.707158 0.751898
P_10 0.853038 0.959327 1.054812 1.171856 1.266294 1.225726
P_10 1.366343 1.401992 1.336956 1.278704 1.318252 1.177393
P_10 1.261253 1.144157 1.160789 1.054887 1.045474 1.011969
P_10 1.009306 1.089282 1.037088 0.993410 1.004633 1.031299
P_10 1.062267 1.111003 1.003939 1.090174 1.092498 1.042459
P_10 1.072176 0.952090 0.943567 0.873186 0.878891 0.701713
P_10 0.759065 0.665154 0.657330 0.615207 0.565866 0.519334
P_10 0.490290 0.489239 0.539011 0.563085 0.575601 0.588546
P_10 0.657322 0.776274 0.743103 0.879543 0.933147 1.039541
P_10 1.030217 0.999442 1.130067 1.147121 1.115155 1.085936
P_10 1.177690 1.062755 1.052359 0.995257 1.051930 1.063201
P_10 0.988496 1.064591 1.159926 1.077781 0.976639 1.010576
P_10 0.970094 1.082634 1.141556 0.956723 0.942852 0.789137
P_10 0.937197 0.834741 0.889448 0.737755 0.728554 0.690760
P_10 0.635720 0.654869 0.576673 0.527793 0.489880 0.542140
P_10 0.510160 0.464641 0.474208 0.507368 0.480441 0.526562
P_10 0.546705 0.640528 0.678069 0.662804 0.806903 0.811727
P_10 0.937871 0.937040 0.974345 1.069237 1.011932 1.099251
P_10 1.011469 1.059492 0.911560 0.994405 0.967647 0.938719
P_10 0.935102 0.932899 0.884129 0.859525 0.975897 0.889893
P_10 0.948822 0.946160 0.984477 1.038478 0.917541 1.023874
P_10 0.990813 0.883957 0.937035 0.867110 0.775001 0.722193
P_10 0.674506 0.541014 0.505961 0.460990 0.451219 0.440910
P_10 0.426866 0.483237 0.520438 0.532171 0.613731 0.704377
P_10 0.820298 0.909446 0.948517 0.967910 1.078725 1.128332
P_10 1.115661 1.149316 1.292447 1.213615 1.251968 1.217789
P_10 1.115710 1.069590 1.050641 1.080140 1.004067 0.971612
P_10 0.879090 0.879332 0.916688 0.822109 0.990589 0.847476
P_10 1.061456 1.025062 1.038705 0.989720 1.017085 1.078130
P_10 1.028523 0.989177 0.993142 0.881866 0.807582 0.708146
P_10 0.693961 0.643026 0.545943 0.509882 0.499704 0.439033
P_10 0.435453 0.469377 0.490506 0.612509 0.659258 0.718649
P_10 0.803793 0.856484 0.943298 1.043247 1.045589 1.136678
P_10 1.078472 1.188714 1.266060 1.144007 1.137875 1.154118
P_10 1.180213 1.127936 0.990639 1.014327 1.049690 0.894527
P_10 0.932116 0.946387 0.944432 0.975184 0.988314 0.984964
P_10 0.918350 1.132020 1.098896 1.221786 1.160130 1.033137
P_10 0.956280 1.029108 1.018438 0.885243 0.873745 0.723731
P_10 0.657665 0.580198 0.579256 0.497084 0.426598 0.474738
P_10 0.438535 0.457217 0.510224 0.600445 0.666834 0.742384
P_10 0.880834 0.887567 0.989618 1.000366 1.006443 1.134254
P_10 1.166469 1.153677 1.170879 1.204749 1.219411 1.180025
P_10 1.203891 1.119524 1.056091 1.040084 1.091562 0.966933
P_10 1.041525 0.915999 0.973462 1.021416 1.025776 1.025981
P_10 1.092358 1.023607 0.933315 1.099338 1.000295 1.134989
P_10 1.136244 1.037271 0.898202 0.888573 0.879482 0.812351
P_10 0.738532 0.629508 0.523034 0.516548 0.499015 0.460417
P_10 0.469129 0.530955 0.498957 0.587265 0.720840 0.698800
P_10 0.815274 0.929347 0.971753 0.924711 1.079435 1.159473
P_10 1.148081 1.172805 1.122999 1.152143 1.161151 1.188781
P_10 1.088562 1.021182 0.947873 0.980405 1.099153 1.021483
P_10 0.964597 0.897101 0.933274 1.025572 0.977556 1.160584
P_10 1.048511 1.159659 1.026873 1.031080 1.246949 1.065805
P_10 0.986337 0.942803 1.019699 0.905181 0.936281 0.752849
P_10 0.756154 0.708697 0.577714 0.557613 0.507738 0.437987
P_10 0.483573 0.499489 0.567325 0.643495 0.718109 0.790120
P_10 0.893866 0.984211 1.086997 1.302867 1.293971 1.254790
P_10 1.390708 1.478684 1.354595 1.373096 1.396444 1.235834
P_10 1.317110 1.280322 1.173008 1.052877 1.145638 1.063000
P_10 0.939732 1.042576 1.061632 0.990545 0.997819 1.053367
P_10 1.145318 1.060920 1.033541 1.013154 1.090774 1.034162
P_10 0.950126 0.935561 0.926059 0.976621 0.866572 0.832473
P_10 0.755820 0.693983 0.682753 0.593620 0.563685 0.524949
P_10 0.499374 0.496696 0.496428 0.544850 0.546993 0.613503
P_10 0.688757 0.783735 0.870092 0.984347 0.955790 0.906966
P_10 1.103430 1.010753 1.037584 1.199282 1.212632 1.138172
P_10 1.110592 1.100330 1.024388 1.178883 1.131123 1.073295
P_10 1.105560 1.057959 1.074129 1.094998 1.134254 1.019560
P_10 1.049377 1.217684 0.999805 1.123866 0.941370 0.918210
P_10 0.892941 0.855881 0.850733 0.771449 0.775404 0.706903
P_10 0.653699 0.598060 0.640217 0.567425 0.490572 0.547541
P_10 0.478391 0.523522 0.504062 0.448911 0.559796 0.526307
P_10 0.607896 0.552930 0.631821 0.728667 0.856418 0.905037
P_10 0.921552 0.924373 0.995015 1.046239 1.090435 1.030930
P_10 0.976164 1.056979 1.116822 1.025811 0.962278 0.943788
P_10 0.978585 0.977227 0.934205 1.012140 0.982443 0.904445
P_10 1.009410 0.994066 1.142518 0.945429 1.011419 0.925772
P_10 0.917671 0.929465 0.891232 0.828848 0.903104 0.714366
P_10 0.662056 0.591279 0.554008 0.502794 0.460999 0.491702
P_10 0.466972 0.457692 0.526109 0.600634 0.576988 0.699211
P_10 0.787228 0.855735 0.916777 0.981496 1.089668 1.192696
P_10 1.222738 1.159068 1.279280 1.312132 1.281675 1.235058
P_10 1.166057 1.130938 1.113661 0.996742 0.962879 1.018014
P_10 0.916548 0.921406 0.911813 0.927457 0.926897 1.032881
P_10 0.999056 1.004620 1.092211 1.058881 1.076681 1.084348
P_10 1.168880 1.118985 0.988772 0.946223 0.933946 0.804321
P_10 0.764275 0.669023 0.574370 0.533607 0.427385 0.465771
P_10 0.505550 0.503727 0.575462 0.591582 0.648263 0.686030
P_10 0.759266 0.869462 0.849404 1.035726 0.976672 1.079877
P_10 1.239176 1.263044 1.182488 1.153684 1.102579 1.177408
P_10 1.130395 1.102546 1.118140 1.020544 0.992401 0.967506
P_10 0.948585 0.967533 0.936378 0.968179 0.980338 0.989371
P_10 0.861600 1.058267 1.054557 1.191506 1.118267 1.171398
P_10 1.002223 0.920867 1.019586 0.937626 0.881195 0.794166
P_10 0.725074 0.675131 0.559439 0.504556 0.480001 0.481861
P_10 0.420270 0.512064 0.517579 0.576703 0.635627 0.776091
P_10 0.835644 0.977532 0.930747 1.026916 1.140876 1.231923
P_10 1.161418 1.105624 1.180052 1.332210 1.191561 1.226260
P_10 1.126372 1.168020 1.137109 1.233493 1.062466 0.890854
P_10 1.049966 1.114690 0.987036 0.985041 1.059778 0.978376
P_10 1.199934 1.184147 1.124949 1.133532 1.142164 1.118928
P_10 1.030262 0.948474 1.088297 0.937372 0.879452 0.802860
P_10 0.703424 0.615636 0.601268 0.526414 0.448832 0.492803
P_10 0.522233 0.512040 0.529671 0.592925 0.651026 0.726918
P_10 0.866209 0.944680 1.034225 1.142919 1.060631 1.217059
P_10 1.172402 1.254142 1.244521 1.190977 1.071301 1.235912
P_10 1.092480 1.140808 1.044628 1.046121 1.046646 1.106041
P_10 1.069018 1.088375 1.013283 1.022357 0.923953 1.059030
P_10 1.045523 1.087543 1.118798 1.145936 1.038408 1.100832
P_10 1.105492 1.161123 1.021993 0.975665 0.958197 0.805945
P_10 0.738163 0.684763 0.595327 0.529832 0.488127 0.491059
P_10 0.495021 0.502831 0.538728 0.674358 0.720143 0.847939
P_10 0.889811 1.006419 1.032490 1.271673 1.195679 1.252972
P_10 1.438751 1.329258 1.394105 1.338696 1.239204 1.318010
P_10 1.261453 1.133866 1.062221 1.167340 1.162540 1.054589
P_10 1.091720 1.080281 1.068740 1.124288 1.056282 1.076570
P_10 0.975725 1.051989 1.084801 1.149785 1.077930 1.044824
P_10 1.118702 0.975344 0.961892 0.929926 0.870772 0.818793
P_10 0.794017 0.716369 0.674765 0.612943 0.579909 0.554953
P_10 0.510351 0.525412 0.486887 0.531906 0.581095 0.693328
P_10 0.725347 0.756978 0.855289 0.911921 0.948204 1.003640
P_10 1.095383 0.978026 1.206148 1.204384 1.227052 1.123151
P_10 1.207906 1.163998 1.245189 1.116323 1.059546 1.113719
P_10 1.070080 1.071408 1.031840 0.976873 1.094721 1.063073
P_10 1.151913 1.058964 1.124370 1.077871 1.070094 0.936680
P_10 0.963122 0.895366 0.865424 0.756191 0.792230 0.744795
P_10 0.781096 0.633407 0.587590 0.580825 0.592069 0.544029
P_10 0.524554 0.528167 0.491850 0.499548 0.589075 0.539213
P_10 0.585886 0.649655 0.679617 0.781623 0.817949 0.839183
P_10 0.993271 0.991777 1.088179 1.139266 1.040974 1.056732
P_10 1.074445 1.040333 1.130887 1.065776 0.975785 1.005514
P_10 1.005085 1.005812 0.964844 0.985525 1.024405 1.010523
P_10 0.915464 1.015252 0.998913 1.017322 0.975469 1.017333
P_10 1.028754 0.979015 0.957257 0.827956 0.833227 0.744068
P_10 0.642127 0.583856 0.609296 0.499769 0.478750 0.469040
P_10 0.467207 0.506250 0.509596 0.590802 0.604299 0.711286
P_10 0.821971 0.846743 1.016036 1.059151 1.170999 1.151993
P_10 1.307823 1.302047 1.384273 1.378480 1.199910 1.207170
P_10 1.282183 1.113949 1.137287 1.078860 1.042427 0.923312
P_10 0.857183 0.947387 0.899092 0.928981 1.017748 0.926123
P_10 0.986413 1.069631 1.103422 1.174448 1.025744 1.032020
P_10 1.038771 1.083729 0.973389 0.985381 0.915346 0.746915
P_10 0.743576 0.633509 0.670053 0.504642 0.501917 0.477554
P_10 0.471360 0.498461 0.543630 0.566137 0.666384 0.729296
P_10 0.796897 0.940265 0.979900 1.082573 1.128243 1.079884
P_10 1.162459 1.158498 1.230192 1.233130 1.211469 1.262107
P_10 1.151116 1.033728 1.068933 1.053335 0.946665 1.003474
P_10 0.971762 0.977032 0.947855 0.997969 1.095740 1.070356
P_10 1.027823 1.080395 1.163493 1.232611 1.131974 1.154750
P_10 1.135008 1.108838 1.031696 0.936907 0.928795 0.757209
P_10 0.714017 0.701097 0.535908 0.567761 0.525659 0.491638
P_10 0.506719 0.509248 0.562096 0.630641 0.697260 0.717825
P_10 0.803818 0.874988 1.041071 1.062637 1.050454 1.257255
P_10 1.208003 1.171073 1.185588 1.300277 1.177820 1.283249
P_10 1.160559 1.240276 1.150782 1.130233 1.113479 1.010893
P_10 1.084399 1.067555 1.142624 0.969943 0.987454 1.024508
P_10 1.029625 1.082777 1.208014 1.003461 1.054203 1.163224
P_10 1.123409 1.136129 0.982071 0.948220 0.856405 0.849100
P_10 0.742007 0.703036 0.580301 0.543368 0.456597 0.464745
P_10 0.491655 0.527056 0.565372 0.597000 0.693050 0.783478
P_10 0.823726 0.924882 0.974224 1.038508 1.102446 1.200050
P_10 1.231988 1.212907 1.280976 1.209838 1.120652 1.149209
P_10 1.194412 1.117955 1.066241 1.073699 1.079818 1.070055
P_10 1.040516 0.938609 1.009722 0.975108 1.078868 1.179290
P_10 1.160513 1.087477 1.196741 1.014046 1.122382 1.048302
P_10 1.061447 1.040087 1.081283 0.994340 0.937183 0.785747
P_10 0.726077 0.673890 0.583510 0.573848 0.519234 0.469615
P_10 0.527031 0.498385 0.560602 0.618854 0.738461 0.862840
P_10 0.902748 1.043910 1.088637 1.214252 1.260946 1.327288
P_10 1.378536 1.395418 1.380111 1.395255 1.302542 1.346456
P_10 1.249453 1.176747 1.106569 1.130103 1.096834 1.085701
P_10 0.995238 0.985558 1.005763 1.038949 1.053944 1.069987
P_10 1.236219 1.128988 1.108973 1.197295 1.118513 1.082970
P_10 1.063403 0.990921 1.039732 1.018274 0.812701 0.846319
P_10 0.770024 0.772482 0.702350 0.577968 0.567192 0.561400
P_10 0.490359 0.533620 0.583673 0.527793 0.580861 0.601818
P_10 0.700367 0.689427 0.824601 0.891132 0.931351 1.079218
P_10 1.172968 1.171962 1.074971 1.196211 1.138011 1.236842
P_10 1.136025 1.149402 1.151567 1.108518 1.160447 1.101721
P_10 1.050789 1.064716 1.063552 1.041137 1.183899 1.204111
P_10 1.039119 0.988593 1.000160 1.065388 0.989913 1.106366
P_10 1.027583 0.954913 0.920816 0.825177 0.800389 0.743552
P_10 0.729810 0.675360 0.650677 0.586597 0.566354 0.544480
P_10 0.490466 0.469980 0.510843 0.487113 0.560874 0.595358
P_10 0.619948 0.660018 0.666359 0.841886 0.826113 0.937958
P_10 0.979868 0.963029 1.078049 1.049857 1.088325 1.126762
P_10 1.199457 1.182369 1.079239 1.011675 1.103733 1.027222
P_10 0.915827 1.013719 0.896373 1.048049 1.064099 0.983477
P_10 1.043818 1.091957 1.157813 0.980417 1.122414 1.025556
P_10 1.042235 1.064726 0.969159 0.857799 0.780726 0.699644
P_10 0.729886 0.580438 0.572451 0.495746 0.501282 0.458908
P_10 0.501198 0.471012 0.467651 0.578668 0.679005 0.707109
P_10 0.779064 0.824829 1.020204 1.114788 1.125412 1.185391
P_10 1.198367 1.324520 1.369571 1.371133 1.236275 1.343108
P_10 1.191416 1.242193 1.088378 1.168912 1.076569 0.997006
P_10 1.001201 0.948442 0.945436 0.954376 1.035659 1.045852
P_10 1.073204 1.065127 1.092301 1.122761 1.183897 1.153690
P_10 1.142338 0.952600 1.065298 1.078357 0.886229 0.835316
P_10 0.726201 0.660568 0.634567 0.549650 0.481461 0.518563
P_10 0.497210 0.459118 0.570639 0.599330 0.640022 0.769624
P_10 0.746150 0.915078 0.984422 1.093248 1.008192 1.108550
P_10 1.192578 1.214412 1.176879 1.217717 1.291582 1.288627
P_10 1.244499 1.179286 1.151496 0.994312 1.119008 0.961331
P_10 0.956242 0.905617 1.016581 1.029638 1.054917 1.114207
P_10 1.144353 1.114750 1.146315 1.076549 1.267470 1.208502
P_10 1.211551 1.075656 1.025218 1.142435 0.903997 0.746354
P_10 0.709917 0.637324 0.592728 0.584679 0.487718 0.517574
P_10 0.545473 0.509640 0.565344 0.662969 0.656042 0.731515
P_10 0.862177 0.950347 0.983011 1.100641 1.104073 1.235653
P_10 1.237127 1.193722 1.332403 1.208908 1.195281 1.320048
P_10 1.160075 1.169656 1.228978 1.183124 1.057043 1.094095
P_10 1.131600 1.055862 1.024720 0.979448 1.101879 1.164328
P_10 1.125506 1.114976 1.180558 1.217853 1.105289 1.140918
P_10 1.092658 1.087513 1.136750 0.948947 0.843355 0.771702
P_10 0.747233 0.706473 0.589369 0.529864 0.505700 0.471670
P_10 0.503151 0.500159 0.525269 0.664950 0.712153 0.817657
P_10 0.880053 0.982528 1.070563 1.140281 1.152904 1.170380
P_10 1.115134 1.282470 1.339857 1.244985 1.155502 1.143830
P_10 1.109034 1.186097 1.116906 0.949987 1.035888 1.007195
P_10 0.960680 1.019956 1.049123 1.064161 1.056876 1.113896
P_10 1.081143 1.126095 1.129083 1.099563 1.144998 1.144764
P_10 1.060309 1.061876 0.894141 0.978618 0.891048 0.910255
P_10 0.766543 0.694035 0.617769 0.595630 0.514862 0.477429
P_10 0.495809 0.552661 0.606788 0.647806 0.753768 0.855610
P_10 0.958931 1.117812 1.180094 1.333305 1.364924 1.275569
P_10 1.371493 1.423804 1.299420 1.453201 1.410360 1.356714
P_10 1.171687 1.280763 1.157400 1.052016 1.164856 1.072138
P_10 1.103113 1.068319 1.066650 1.148268 1.094115 1.079415
P_10 1.159348 1.081554 1.023872 1.074133 1.113428 1.211517
P_10 1.045601 1.062705 1.048370 1.009960 0.929343 0.881493
P_10 0.867172 0.714837 0.687737 0.641073 0.546362 0.520863
P_10 0.580753 0.527767 0.515566 0.561156 0.595839 0.642086
P_10 0.750359 0.788890 0.856377 0.923365 0.949809 1.123300
P_10 1.144495 1.213530 1.168175 1.203668 1.166267 1.148240
P_10 1.241088 1.146969 1.135435 1.129015 1.163391 1.194427
P_10 1.021080 1.024196 1.108504 0.965192 1.220128 1.164950
P_10 1.052857 1.233563 1.093867 1.138318 1.069406 1.044492
P_10 0.982993 0.997701 1.006209 0.902156 0.847947 0.783333
P_10 0.692136 0.701121 0.646049 0.592364 0.539053 0.548647
P_10 0.584136 0.541865 0.535853 0.462553 0.541029 0.578193
P_10 0.580385 0.619245 0.718479 0.806394 0.874618 0.918483
P_10 0.893266 0.950606 1.083384 1.190895 1.070796 1.104526
P_10 1.069405 1.089861 1.181872 1.127785 1.100829 1.108334
P_10 1.065468 0.988267 0.970847 1.124551 1.024164 0.923446
P_10 1.106192 1.058917 1.104918 1.087683 0.982761 0.993540
P_10 0.997593 1.014793 0.907155 0.897276 0.809108 0.798498
P_10 0.699672 0.648416 0.614385 0.578516 0.495066 0.479541
P_10 0.474284 0.503033 0.538395 0.675085 0.678947 0.765447
P_10 0.868916 0.917682 1.001274 1.029325 1.166295 1.245901
P_10 1.275533 1.358248 1.311923 1.345238 1.293241 1.158032
P_10 1.253509 1.106896 1.122990 1.065518 0.983444 1.031764
P_10 0.930671 1.013321 1.002883 1.050641 0.955542 1.067990
P_10 1.025969 1.169734 1.066046 1.222988 1.333304 1.107567
P_10 1.188587 1.130820 1.096367 0.959083 0.896656 0.830632
P_10 0.799069 0.611984 0.647428 0.578961 0.566855 0.491945
P_10 0.527715 0.540612 0.586980 0.604653 0.623742 0.761247
P_10 0.853285 0.927586 0.958234 1.069000 1.163495 1.299360
P_10 1.177903 1.374384 1.326170 1.282617 1.300246 1.308200
P_10 1.172617 1.188734 1.095445 1.203098 1.016581 1.025880
P_10 1.038188 0.988856 1.096255 1.042429 1.069598 1.104874
P_10 1.171655 1.204984 1.129228 1.045717 1.155856 1.104996
P_10 1.118329 1.207006 1.035402 0.980593 0.943891 0.884826
P_10 0.797854 0.630704 0.592904 0.577651 0.557418 0.536122
P_10 0.500387 0.493596 0.534460 0.587747 0.754950 0.726236
P_10 0.844392 0.943083 1.104818 1.158508 1.130254 1.190147
P_10 1.262082 1.281606 1.297613 1.310233 1.270749 1.179873
P_10 1.164244 1.079957 1.204106 1.066905 1.095049 1.139210
P_10 1.100286 1.136179 1.137667 1.097868 1.121118 1.056047
P_10 1.104162 1.102704 1.098325 1.209108 1.190146 1.196865
P_10 1.235490 1.144078 1.049986 0.937388 0.916524 0.834305
P_10 0.771001 0.695399 0.581789 0.570753 0.506783 0.484230
P_10 0.514612 0.586567 0.547697 0.617342 0.712170 0.812521
P_10 0.933491 0.988299 1.045199 1.193711 1.230499 1.220039
P_10 1.322982 1.325543 1.311848 1.184910 1.198100 1.133422
P_10 1.227629 1.121063 1.178821 1.130042 1.078310 1.034426
P_10 0.883356 1.028503 1.061131 1.039359 1.195806 1.047666
P_10 1.149002 1.190029 1.222181 1.159663 1.263635 1.104565
P_10 1.221876 1.091030 1.083192 1.030519 0.936266 0.861498
P_10 0.783191 0.701254 0.626401 0.606119 0.558947 0.487698
P_10 0.504605 0.544286 0.625834 0.640848 0.803420 0.863598
P_10 1.077824 1.167782 1.219968 1.374299 1.359237 1.373791
P_10 1.472245 1.507302 1.474997 1.391194 1.404071 1.375509
P_10 1.308890 1.368044 1.339951 1.160772 1.148908 1.033425
P_10 1.140643 1.167459 1.127439 1.062426 1.242937 1.188643
P_10 1.136070 1.257387 1.166747 1.258017 1.099106 1.098099
P_10 1.076386 1.119834 0.987194 1.010534 0.905518 0.908119
P_10 0.882669 0.799567 0.668986 0.683424 0.599364 0.615752
P_10 0.566055 0.525563 0.572078 0.588700 0.628086 0.647953
P_10 0.729147 0.788292 0.870385 0.927061 0.910744 1.083734
P_10 1.112712 1.142941 1.281821 1.195756 1.194137 1.200699
P_10 1.117612 1.378951 1.241946 1.191616 1.043552 1.118238
P_10 1.155079 1.170821 1.154108 1.114650 1.122974 1.287469
P_10 1.184410 1.204151 1.089314 1.000351 0.991597 1.083085
P_10 1.005553 0.970276 0.888773 0.896038 0.795322 0.839013
P_10 0.759695 0.713382 0.646462 0.631704 0.594061 0.571040
P_10 0.541260 0.509500 0.557270 0.541660 0.587100 0.615844
P_10 0.631585 0.663387 0.741759 0.760059 0.886230 0.925497
P_10 0.884224 1.083033 1.127733 1.070519 1.056048 1.039335
P_10 1.166870 1.126035 1.080016 1.065030 1.029872 1.051821
P_10 1.023965 1.075095 1.032980 0.947696 1.147396 1.043817
P_10 1.082876 1.083071 1.149259 1.103838 1.118073 1.144093
P_10 1.014483 1.012519 0.983430 0.898416 0.893055 0.704124
P_10 0.688738 0.637411 0.597532 0.545890 0.526617 0.496345
P_10 0.486012 0.492597 0.596094 0.620382 0.665048 0.722534
P_10 0.823921 0.911714 1.034429 1.229751 1.271125 1.263506
P_10 1.291778 1.414873 1.353842 1.411911 1.335032 1.201355
P_10 1.250649 1.197691 1.139712 1.118823 1.163262 1.098523
P_10 1.119950 0.986867 0.965463 0.961158 1.012846 0.950544
P_10 1.076953 1.122146 1.241314 1.250339 1.167852 1.226955
P_10 1.240350 1.140200 1.078450 1.017986 0.939241 0.842587
P_10 0.731986 0.659566 0.625973 0.571153 0.540392 0.516945
P_10 0.497006 0.533616 0.517132 0.699994 0.739011 0.727411
P_10 0.796064 0.902300 1.058675 1.095485 1.181213 1.247534
P_10 1.309829 1.248695 1.391124 1.460583 1.340291 1.203887
P_10 1.132034 1.246286 1.130661 1.059022 0.987799 1.033909
P_10 0.960231 1.051139 0.943891 1.006713 1.085446 1.171985
P_10 1.093792 1.187956 1.272393 1.257460 1.232597 1.196705
P_10 1.217708 1.016157 1.094173 0.985265 0.912422 0.829430
P_10 0.727764 0.729277 0.629751 0.592446 0.558174 0.485495
P_10 0.547793 0.547466 0.607037 0.645163 0.697009 0.757782
P_10 0.925241 1.021160 1.050420 1.137943 1.091646 1.264664
P_10 1.249826 1.340731 1.330195 1.116463 1.299578 1.336081
P_10 1.308640 1.194152 1.178548 1.164532 1.161986 1.137251
P_10 1.130195 1.084957 1.140959 1.084840 1.115683 1.175507
P_10 1.192040 1.157218 1.188307 1.156643 1.213022 1.184531
P_10 1.317061 1.038413 1.114798 1.050897 0.975999 0.854245
P_10 0.768215 0.690560 0.633812 0.550108 0.574721 0.532798
P_10 0.461123 0.517816 0.595808 0.681809 0.691535 0.816184
P_10 0.964704 0.955184 1.100724 1.016427 1.188549 1.293909
P_10 1.215445 1.280705 1.227734 1.346629 1.269160 1.129177
P_10 1.135400 1.251348 1.177073 1.135116 1.106569 1.094828
P_10 1.022895 1.175907 1.123576 1.081646 1.029699 1.281190
P_10 1.180606 1.178792 1.155260 1.287755 1.189649 1.195812
P_10 1.234178 1.175843 1.082990 1.021907 0.949883 0.978396
P_10 0.708965 0.638689 0.598085 0.573305 0.550990 0.563544
P_10 0.616048 0.549635 0.556766 0.676530 0.775343 0.880326
P_10 0.960068 1.152853 1.330117 1.196049 1.432765 1.338512
P_10 1.398002 1.458499 1.455860 1.576866 1.569587 1.391877
P_10 1.360263 1.335865 1.258818 1.287797 1.231036 1.008372
P_10 1.116276 1.165912 1.166028 1.035633 1.128725 1.142901
P_10 1.181009 1.186760 1.244984 1.191656 1.066002 1.138039
P_10 1.096714 1.067678 1.055983 0.922194 0.926786 0.961113
P_10 0.840316 0.759723 0.759721 0.722717 0.680960 0.550910
P_10 0.574624 0.520652 0.501834 0.615385 0.596991 0.750726
P_10 0.698460 0.791782 0.998860 1.007933 1.115971 1.197194
P_10 1.120840 1.196606 1.095894 1.247828 1.204074 1.181381
P_10 1.367279 1.243871 1.219398 1.260077 1.194463 1.052097
P_10 1.104470 1.051309 1.213303 1.105234 1.211693 1.233906
P_10 1.137924 1.132683 1.168114 1.072755 1.068595 1.073906
P_10 1.003676 0.989210 0.956397 0.929378 0.832891 0.804719
P_10 0.710300 0.740060 0.705348 0.574362 0.615735 0.614650
P_10 0.571343 0.561698 0.524475 0.576075 0.583026 0.598801
P_10 0.629520 0.687445 0.750335 0.760127 0.819167 0.896013
P_10 1.040137 1.115152 1.078015 1.200735 1.216698 1.179491
P_10 1.237810 1.193353 1.141025 1.159930 1.101597 1.083820
P_10 1.113281 1.049129 1.062400 1.009652 1.099201 1.103777
P_10 1.156690 1.078855 1.239902 1.153832 1.126739 1.137179
P_10 1.119927 0.950260 0.996968 0.974578 0.884320 0.808383
P_10 0.769235 0.653326 0.601036 0.569532 0.502283 0.496614
P_10 0.525323 0.502009 0.556707 0.610593 0.621844 0.783981
P_10 0.869897 0.965264 1.049877 1.127408 1.200228 1.332173
P_10 1.486197 1.434522 1.395112 1.500855 1.358655 1.291052
P_10 1.428335 1.313235 1.109192 1.161700 1.053862 1.030636
P_10 1.043321 0.995370 0.974135 0.984886 0.968107 1.142837
P_10 1.158334 1.183877 1.263054 1.173397 1.226092 1.239948
P_10 1.208690 1.142343 1.037013 0.980119 0.854188 0.872242
P_10 0.721172 0.703208 0.658212 0.573552 0.571758 0.516471
P_10 0.550717 0.536988 0.572712 0.635359 0.726621 0.767967
P_10 0.884338 0.950541 1.028485 1.130237 1.172780 1.381335
P_10 1.225572 1.341373 1.229359 1.449909 1.262536 1.268603
P_10 1.412972 1.178534 1.153962 1.090630 1.092831 0.991598
P_10 1.077361 1.081195 1.022645 1.096628 1.021740 1.143095
P_10 1.160989 1.188236 1.192361 1.227816 1.356081 1.147523
P_10 1.162969 1.190532 1.130039 1.023348 0.974723 0.768381
P_10 0.751476 0.671143 0.653613 0.583735 0.560277 0.507454
P_10 0.539750 0.598113 0.569432 0.650603 0.749215 0.860727
P_10 0.917552 0.928957 1.094394 1.233273 1.194354 1.211870
P_10 1.309033 1.321953 1.390097 1.259304 1.303531 1.305329
P_10 1.306703 1.304273 1.275435 1.185673 1.172145 1.160189
P_10 1.031556 1.040818 1.104626 1.139286 1.134553 1.237865
P_10 1.244251 1.210707 1.178503 1.280505 1.182795 1.221190
P_10 1.093808 1.210815 1.092862 1.055527 0.901270 0.838304
P_10 0.794305 0.696031 0.651151 0.569262 0.546030 0.505889
P_10 0.526814 0.549024 0.590077 0.645705 0.746362 0.856167
P_10 0.886374 1.033626 1.101242 1.134845 1.156207 1.232179
P_10 1.400234 1.367859 1.313389 1.416625 1.387618 1.268000
P_10 1.232599 1.167574 1.251166 1.073308 1.011968 1.161270
P_10 1.069343 1.143669 1.185115 1.100078 1.166216 1.211801
P_10 1.111706 1.149092 1.206020 1.186805 1.265417 1.262707
P_10 1.254569 1.113156 1.270277 1.153287 1.022082 0.893312
P_10 0.795334 0.700423 0.629312 0.636875 0.523963 0.536318
P_10 0.508404 0.579269 0.641212 0.724879 0.821030 0.947889
P_10 1.045430 1.167983 1.176202 1.348151 1.319352 1.434138
P_10 1.414131 1.566730 1.425923 1.462823 1.414473 1.264651
P_10 1.404781 1.342754 1.197117 1.215448 1.190817 1.136234
P_10 1.140232 1.177851 1.189834 1.126833 1.046616 1.188290
P_10 1.139452 1.317920 1.287874 1.209393 1.176480 1.154993
P_10 1.120522 1.169801 1.053876 0.969337 0.917917 0.947322
P_10 0.836562 0.806142 0.755273 0.681049 0.600236 0.619070