; Filename: networks/Net1.inp
; WNTR: 0.1.6
; Created: 2019-04-09 13:08:41
[TITLE]
EPANET Example Network 1
A simple example of modeling chlorine decay. Both bulk and
wall reactions are included.

[JUNCTIONS]
;ID                      Elevation       Demand Pattern                 
 10                               710               0                            ;
 11                               710               0                            ;
 12                               700               0                            ;
 13                               695               0                            ;
 21                               700               0                            ;
 22                               695               0                            ;
 23                               690               0                            ;
 31                               700               0                            ;
 32                               710               0                            ;

[RESERVOIRS]
;ID                                   Head                  Pattern
 9                                800                            ;

[TANKS]
;ID                              Elevation           Init Level            Min Level            Max Level             Diameter           Min Volume Volume Curve        
 2                                850             120             100             150            50.5               0                        ;

[PIPES]
;ID                   Node1                Node2                              Length             Diameter            Roughness           Minor Loss               Status
 10                   10                   11                             10530              18             100               0                 Open   ;
 11                   11                   12                              5280              14             100               0                 Open   ;
 12                   12                   13                              5280              10             100               0                 Open   ;
 21                   21                   22                              5280              10             100               0                 Open   ;
 22                   22                   23                              5280              12             100               0                 Open   ;
 31                   31                   32                              5280               6             100               0                 Open   ;
 110                  2                    12                               200              18             100               0                 Open   ;
 111                  11                   21                              5280              10             100               0                 Open   ;
 112                  12                   22                              5280              12             100               0                 Open   ;
 113                  13                   23                              5280               8             100               0                 Open   ;
 121                  21                   31                              5280               8             100               0                 Open   ;
 122                  22                   32                              5280               6             100               0                 Open   ;

[PUMPS]
;ID                   Node1                Node2                Properties          
 9                    9                    10                   HEAD     1                      ;

[VALVES]
;ID                   Node1                Node2                            Diameter Type              Setting           Minor Loss

[TAGS]
;type      name       tag       

[DEMANDS]
;ID        Demand     Pattern   
10         0.0        P_10      
11         150.0      P_11      
12         150.0      P_12      
13         100.0      P_13      
21         150.0      P_21      
22         200.0      P_22      
23         150.0      P_23      
31         100.0      P_31      
32         100.0      P_32      

[STATUS]
;ID        Setting   
[PATTERNS]
;ID        Multipliers

1 1.000000 1.200000 1.400000 1.600000 1.400000 1.200000
1 1.000000 0.800000 0.600000 0.400000 0.600000 0.800000

P_10 0.568574 0.487575 0.424958 0.360604 0.297436 0.329784
P_10 0.330780 0.350372 0.376834 0.455516 0.493402 0.633506
P_10 0.781406 0.849316 1.012895 1.079581 1.207389 1.235181
P_10 1.396087 1.324827 1.401357 1.419306 1.336737 1.294692
P_10 1.251036 1.208588 1.161215 1.093328 1.038786 1.036793
P_10 0.921465 0.893726 0.887599 0.894301 0.931497 0.969712
P_10 0.961030 1.152382 1.058361 1.057248 0.996939 1.258143
P_10 1.111922 1.005152 0.916082 0.815773 0.831383 0.662475
P_10 0.591367 0.544617 0.451861 0.434065 0.370999 0.322054
P_10 0.321311 0.351891 0.417745 0.423230 0.560523 0.655485
P_10 0.713697 0.846200 0.893655 0.955352 1.177260 1.273940
P_10 1.320013 1.356922 1.321668 1.215474 1.315684 1.201120
P_10 1.249262 1.193889 1.010570 1.092118 0.996524 0.944674
P_10 0.960692 1.029154 0.873354 0.911185 1.021797 1.056552
P_10 0.999130 1.057396 1.170584 1.183456 1.029734 1.160996
P_10 1.163837 1.042398 1.040677 0.883164 0.719340 0.677220
P_10 0.597235 0.525304 0.441036 0.398945 0.350064 0.326858
P_10 0.333428 0.417188 0.426102 0.459902 0.565218 0.678104
P_10 0.751850 0.931049 0.976089 1.058046 1.047039 1.264715
P_10 1.189172 1.269131 1.200727 1.223637 1.240813 1.244334
P_10 1.182633 1.148789 1.212895 1.138523 1.083063 1.075329
P_10 1.016925 0.963826 1.016504 1.084104 1.059978 1.062733
P_10 0.987153 1.064582 1.168046 1.059870 1.109571 1.062026
P_10 1.049877 0.979605 0.991999 0.839315 0.757821 0.676971
P_10 0.613137 0.543636 0.475224 0.408408 0.345506 0.339552
P_10 0.310955 0.363784 0.423491 0.508231 0.600157 0.689849
P_10 0.737709 0.904649 0.947816 1.097934 1.123100 1.161315
P_10 1.287291 1.227167 1.289955 1.327413 1.145737 1.275749
P_10 1.167600 1.151429 1.096484 0.955742 1.015935 0.939096
P_10 1.017944 1.011926 1.025583 0.903751 1.066477 0.991175
P_10 1.044040 1.124770 1.098619 1.150825 1.109862 1.109546
P_10 1.077576 1.020135 0.992364 0.877171 0.767008 0.697015
P_10 0.613502 0.594703 0.471553 0.446484 0.364455 0.337929
P_10 0.353676 0.395498 0.469126 0.554729 0.684205 0.731154
P_10 0.878347 0.941473 1.134401 1.213477 1.188430 1.264763
P_10 1.352920 1.494801 1.505022 1.365631 1.329911 1.361437
P_10 1.380235 1.176610 1.183811 1.149283 1.135663 1.113465
P_10 1.039469 1.042630 0.917896 1.121195 1.026566 1.052890
P_10 1.110523 1.121858 1.084985 1.054768 1.120444 1.014869
P_10 0.986611 0.924538 0.906575 0.892469 0.772975 0.804636
P_10 0.713199 0.570713 0.544600 0.499470 0.461926 0.424388
P_10 0.407725 0.376101 0.397399 0.436285 0.487480 0.493396
P_10 0.652079 0.710795 0.771770 0.886278 1.031727 1.069839
P_10 1.085991 1.164572 1.204098 1.252678 1.249297 1.127753
P_10 1.191988 1.211276 1.091420 1.173778 1.052799 1.132638
P_10 1.110257 1.074596 1.165643 1.063601 1.060832 1.112686
P_10 1.005124 1.107907 0.982487 1.003668 0.950783 0.983640
P_10 0.898445 0.846678 0.755255 0.687427 0.703431 0.596470
P_10 0.554685 0.568010 0.481194 0.414795 0.429100 0.383141
P_10 0.379220 0.373080 0.385833 0.368049 0.428736 0.415829
P_10 0.491177 0.549677 0.611789 0.692649 0.835476 0.779746
P_10 0.975157 1.065335 1.038949 1.021451 1.125087 1.176482
P_10 1.182144 1.084910 1.106101 1.109798 1.062102 1.044833
P_10 0.992943 0.966231 0.950226 0.996528 0.969808 0.988348
P_10 0.936075 0.940380 0.939156 1.040414 1.031894 1.033731
P_10 0.934751 0.913116 0.906103 0.822109 0.644092 0.699950
P_10 0.608940 0.521156 0.408993 0.398793 0.344276 0.350194
P_10 0.329353 0.353286 0.405147 0.472824 0.571304 0.697240
P_10 0.761471 0.838664 1.052694 1.062218 1.148159 1.184158
P_10 1.300285 1.380023 1.403004 1.293993 1.435365 1.419425
P_10 1.205906 1.135023 1.152260 1.190630 1.031547 0.904813
P_10 0.881579 0.960728 0.933345 0.946532 0.925179 0.915970
P_10 0.979830 1.022459 1.058889 1.132889 1.005701 1.140378
P_10 1.006752 1.007628 1.017794 0.863398 0.828365 0.701238
P_10 0.627489 0.524980 0.445565 0.410403 0.358718 0.355870
P_10 0.312539 0.362675 0.408263 0.481499 0.582308 0.614777
P_10 0.798226 0.846271 0.956500 1.101013 1.106843 1.269033
P_10 1.259750 1.256074 1.320269 1.316326 1.362233 1.290996
P_10 1.207730 1.138689 1.164905 1.067326 0.960894 1.001412
P_10 1.010880 0.932979 0.982863 1.006021 1.064512 1.053644
P_10 1.018376 1.062423 1.194466 1.196679 1.080543 1.165986
P_10 1.186165 1.030698 0.953200 0.889773 0.832958 0.739336
P_10 0.617711 0.525992 0.462272 0.412356 0.354418 0.309458
P_10 0.373617 0.350436 0.450991 0.515972 0.629318 0.714665
P_10 0.810128 0.867615 0.951761 1.143728 1.197268 1.223199
P_10 1.279477 1.247903 1.288426 1.204763 1.270159 1.313575
P_10 1.215041 1.271565 1.155868 1.218288 1.101156 1.106318
P_10 1.030087 1.001477 0.962292 1.042565 1.026290 1.017679
P_10 1.048929 1.079344 1.080998 1.102706 1.070105 1.094540
P_10 1.012726 1.106680 0.934138 0.836369 0.778656 0.776269
P_10 0.649076 0.544714 0.500031 0.423000 0.382205 0.345813
P_10 0.374822 0.401833 0.406980 0.451735 0.575789 0.702393
P_10 0.853451 0.974663 1.031654 1.145626 1.144659 1.296058
P_10 1.342861 1.324066 1.259419 1.198302 1.281084 1.183545
P_10 1.208403 1.090395 1.058751 1.080004 0.978369 1.059085
P_10 1.036149 1.001874 0.976325 1.033087 0.979382 1.132326
P_10 1.016617 1.115375 1.149830 1.175762 1.070038 1.040069
P_10 1.073153 1.013533 1.042763 0.924799 0.889656 0.768959
P_10 0.675253 0.566838 0.482922 0.450447 0.423807 0.330797
P_10 0.383331 0.424536 0.467397 0.590136 0.609385 0.722799
P_10 0.856802 0.962071 1.144158 1.252020 1.329185 1.308771
P_10 1.559453 1.569170 1.493241 1.463761 1.416340 1.241879
P_10 1.315308 1.230549 1.283785 1.272026 1.070734 1.069862
P_10 1.030473 1.167153 0.969731 1.073585 1.029560 1.122954
P_10 0.973816 1.038735 1.108842 1.038921 1.038068 1.119841
P_10 0.961409 1.012246 0.981195 0.902957 0.856332 0.861683
P_10 0.646700 0.606363 0.548407 0.488878 0.451467 0.393068
P_10 0.384006 0.406420 0.445889 0.412574 0.499363 0.599389
P_10 0.621079 0.679111 0.789628 0.898699 1.011405 0.974307
P_10 1.098461 1.158185 1.321606 1.237250 1.305911 1.232858
P_10 1.304393 1.324391 1.204645 1.180365 1.183558 1.055635
P_10 1.179379 1.051599 1.132326 1.031666 1.030671 1.170849
P_10 1.048410 1.000991 0.984401 1.053536 1.016864 0.951941
P_10 0.913088 0.838300 0.770420 0.793561 0.691987 0.718135
P_10 0.641522 0.546526 0.457890 0.495217 0.458965 0.415843
P_10 0.408267 0.334482 0.399651 0.392358 0.426355 0.430446
P_10 0.505610 0.577318 0.565187 0.700182 0.762498 0.835555
P_10 0.954760 1.016255 1.086577 1.121260 1.178732 1.141144
P_10 1.168638 1.229642 1.128524 1.051888 0.990684 1.038102
P_10 0.922765 1.078439 0.989356 0.938945 1.006505 0.904190
P_10 0.967932 1.011143 0.963477 1.061411 0.975089 1.032642
P_10 0.890299 0.858696 0.848691 0.810542 0.727013 0.686362
P_10 0.593555 0.524791 0.428356 0.378284 0.351596 0.343962
P_10 0.345092 0.313781 0.386345 0.479860 0.582506 0.579917
P_10 0.737485 0.848489 1.067555 1.061079 1.129397 1.289664
P_10 1.315918 1.425485 1.490546 1.398595 1.346394 1.371304
P_10 1.242474 1.298814 1.089554 1.104945 0.928301 0.943231
P_10 0.988031 0.943645 0.926842 0.945986 0.962786 0.964431
P_10 1.032846 1.006246 1.080352 1.215925 1.130421 1.092611
P_10 1.127412 1.004120 0.960674 0.826787 0.838288 0.674756
P_10 0.592782 0.475065 0.446800 0.418159 0.361613 0.347267
P_10 0.342724 0.384259 0.432345 0.458642 0.598478 0.714669
P_10 0.764532 0.879993 0.929381 1.132419 1.190247 1.301080
P_10 1.275529 1.207376 1.273539 1.289801 1.408622 1.335349
P_10 1.309778 1.188932 1.188756 1.121346 1.113999 1.039225
P_10 0.992536 0.918126 1.006699 0.952935 0.988255 1.106044
P_10 1.128278 1.191697 1.148412 1.113708 1.127936 1.176268
P_10 1.169683 1.022109 1.006291 0.923834 0.807346 0.625146
P_10 0.637072 0.532889 0.401312 0.440516 0.353017 0.329766
P_10 0.356711 0.381033 0.443468 0.534662 0.649862 0.689956
P_10 0.830669 0.872678 0.905149 0.997748 1.139033 1.217701
P_10 1.343537 1.375030 1.234347 1.444885 1.335731 1.236772
P_10 1.181824 1.317587 1.114763 1.093488 1.069940 1.040596
P_10 1.106255 0.985119 0.863666 1.029588 1.075712 1.208616
P_10 1.058414 1.149691 1.135519 1.058283 1.052310 1.036595
P_10 1.032111 0.996231 0.987020 0.956784 0.828616 0.692959
P_10 0.615601 0.547376 0.443472 0.430761 0.357769 0.347511
P_10 0.344279 0.380748 0.431270 0.508191 0.593409 0.684084
P_10 0.834330 0.885306 1.055213 1.105857 1.095305 1.184818
P_10 1.307392 1.287922 1.308993 1.400751 1.428510 1.215395
P_10 1.211521 1.224485 1.169322 1.088293 1.013604 0.985190
P_10 0.984951 0.970215 0.962824 0.981791 1.034254 1.026635
P_10 1.024150 1.168320 1.212310 1.193745 1.144708 1.146285
P_10 1.006494 1.048621 0.940982 0.913401 0.845859 0.700982
P_10 0.587949 0.561919 0.502625 0.409604 0.412418 0.377949
P_10 0.384423 0.435509 0.497771 0.577526 0.710078 0.750653
P_10 0.948854 1.081807 1.134960 1.354869 1.368929 1.377012
P_10 1.441662 1.432935 1.524684 1.460140 1.373951 1.434082
P_10 1.307509 1.346563 1.243621 1.218630 1.066599 1.092855
P_10 1.092105 1.049877 1.062560 1.123728 0.991234 1.196838
P_10 1.181465 1.173307 1.103846 1.219136 1.023617 0.979432
P_10 1.017972 0.998727 1.019120 0.888479 0.790682 0.759591
P_10 0.698435 0.649731 0.570217 0.492320 0.455624 0.438756
P_10 0.440540 0.371116 0.415136 0.451022 0.480218 0.604928
P_10 0.631092 0.759378 0.855246 0.881537 0.963194 1.031053
P_10 1.165098 1.187141 1.091058 1.230129 1.260064 1.250902
P_10 1.294044 1.232531 1.141988 1.108566 1.146576 1.115962
P_10 1.114022 1.071670 1.049254 1.069822 0.936160 1.113037
P_10 1.072935 1.046758 1.059755 1.008875 1.014917 1.067449
P_10 0.922847 0.817173 0.792677 0.742863 0.716403 0.695499
P_10 0.488746 0.548140 0.500860 0.446673 0.409282 0.399992
P_10 0.386906 0.395158 0.411948 0.401259 0.429583 0.472968
P_10 0.543801 0.604635 0.673045 0.684976 0.781131 0.816880
P_10 0.890805 1.071476 1.001698 1.024603 1.088716 1.173124
P_10 1.144755 1.079362 1.263267 0.932430 1.004011 1.082350
P_10 1.085432 1.050180 0.995707 0.906844 1.013502 1.019489
P_10 1.016629 1.019283 1.051810 1.072285 1.064382 1.043553
P_10 1.036266 0.965924 0.922334 0.845457 0.775879 0.678335
P_10 0.597255 0.498144 0.460874 0.375302 0.365386 0.328642
P_10 0.369304 0.354118 0.416480 0.479350 0.537918 0.706015
P_10 0.814922 0.841049 0.915949 1.030690 1.176401 1.221818
P_10 1.399733 1.321051 1.348568 1.517262 1.447149 1.438341
P_10 1.234520 1.280452 1.172711 1.168608 1.015237 1.052466
P_10 0.890662 0.955034 0.937396 0.936365 0.947068 1.049892
P_10 0.998745 1.069865 1.083964 1.121280 1.189888 1.117140
P_10 0.992105 1.055433 0.985877 0.932960 0.850435 0.674180
P_10 0.625171 0.537124 0.459258 0.405368 0.376732 0.362323
P_10 0.380381 0.381397 0.414769 0.516279 0.555716 0.662565
P_10 0.749775 0.781365 1.048202 1.149884 1.156424 1.210935
P_10 1.187344 1.309406 1.451263 1.252950 1.261788 1.307639
P_10 1.309997 1.143546 1.185022 1.061350 1.116238 1.087913
P_10 0.982599 0.964981 1.054598 1.046478 0.954134 1.156002
P_10 1.147492 1.091790 1.104003 1.260976 1.276210 1.080597
P_10 1.127886 1.104565 0.986868 0.926937 0.838033 0.721567
P_10 0.578088 0.565636 0.469234 0.399982 0.388194 0.315597
P_10 0.364248 0.399223 0.426777 0.481564 0.659845 0.689003
P_10 0.826789 0.959148 1.088552 1.127970 1.127188 1.365883
P_10 1.355574 1.342953 1.311992 1.266086 1.299101 1.336123
P_10 1.151288 1.239750 1.258239 1.229366 1.151441 1.069675
P_10 1.049550 1.071979 1.048955 1.054300 1.029320 1.027761
P_10 1.134284 1.122092 1.143766 1.245706 1.198796 1.149554
P_10 1.085818 1.026982 1.028664 0.926713 0.858402 0.800846
P_10 0.716906 0.636227 0.442233 0.419524 0.389582 0.357084
P_10 0.358838 0.381469 0.460057 0.512997 0.615610 0.718922
P_10 0.827301 0.953707 1.035363 1.048364 1.150378 1.296431
P_10 1.385025 1.317419 1.472833 1.393607 1.339847 1.199596
P_10 1.174482 1.178623 1.221842 1.109723 1.056846 1.026937
P_10 1.005037 0.996748 1.082296 1.040836 0.907992 1.108508
P_10 1.062042 1.148644 1.133162 1.132289 1.035045 1.109807
P_10 1.082403 1.129905 1.051357 0.951731 0.831340 0.809466
P_10 0.709339 0.595225 0.497461 0.445059 0.383880 0.373260
P_10 0.349409 0.411454 0.456814 0.612642 0.677325 0.806194
P_10 0.935054 1.041597 1.123363 1.434818 1.471069 1.586658
P_10 1.564791 1.686062 1.265678 1.541489 1.531525 1.596038
P_10 1.327880 1.280368 1.250079 1.246232 1.187970 1.075076
P_10 1.188438 1.131728 1.234933 1.194699 1.090410 1.147587
P_10 1.055078 1.142438 1.099174 1.022983 1.042297 1.071274
P_10 0.992086 0.955745 0.915764 0.916842 0.835028 0.785652
P_10 0.694414 0.635481 0.601663 0.536061 0.472010 0.428338
P_10 0.426069 0.395905 0.421769 0.420496 0.494905 0.589547
P_10 0.721486 0.682254 0.863035 0.954545 1.058998 1.132018
P_10 1.228883 1.263669 1.260493 1.393838 1.252211 1.214374
P_10 1.222790 1.207680 1.140739 1.223995 1.175681 1.154758
P_10 1.016965 1.035163 1.121054 1.188451 1.080401 1.192684
P_10 1.037796 1.027759 1.100184 1.095881 1.089596 0.918043
P_10 0.927780 0.941101 0.822123 0.786893 0.743068 0.657376
P_10 0.693185 0.566740 0.483611 0.496556 0.476760 0.403522
P_10 0.386397 0.444623 0.373511 0.418558 0.406865 0.465596
P_10 0.572543 0.567406 0.669381 0.749955 0.783358 0.849609
P_10 0.922089 0.998910 1.091088 1.140091 1.165509 1.200073
P_10 1.203057 1.203108 1.091806 1.155162 1.187361 1.045042
P_10 1.015916 1.049551 0.910584 0.994969 0.979255 1.045506
P_10 1.098963 0.972756 1.075827 1.148207 1.019784 1.079014
P_10 1.066199 1.033078 0.930640 0.847764 0.805718 0.756074
P_10 0.584942 0.513322 0.495185 0.407510 0.349097 0.322463
P_10 0.331437 0.367892 0.435435 0.464834 0.581424 0.652981
P_10 0.807951 0.941736 1.086920 1.098640 1.227322 1.325543
P_10 1.518355 1.449395 1.354033 1.297430 1.398498 1.377688
P_10 1.364903 1.270682 1.218431 1.115973 1.098500 1.047126
P_10 1.014780 1.033564 0.954428 0.950783 1.024309 0.950110
P_10 0.979839 1.131929 1.141241 1.124539 1.237030 1.310896
P_10 1.095405 1.097386 0.995954 0.988480 0.843852 0.764543
P_10 0.617353 0.573699 0.470003 0.439849 0.360711 0.341844
P_10 0.389035 0.366519 0.452935 0.501506 0.535448 0.698919
P_10 0.844090 0.965958 1.058322 1.120192 1.197666 1.348330
P_10 1.304048 1.344888 1.426363 1.339401 1.407443 1.236426
P_10 1.397972 1.132413 1.062676 1.033687 1.029474 1.068043
P_10 1.028914 1.032869 1.028083 0.975525 1.040035 1.054295
P_10 1.171981 1.121190 1.162487 1.231158 1.179634 1.107530
P_10 1.207378 1.074622 0.996522 0.949945 0.791900 0.711512
P_10 0.633035 0.595613 0.475912 0.389599 0.361401 0.381679
P_10 0.362292 0.392641 0.489035 0.522200 0.655014 0.726109
P_10 0.850913 0.968605 1.016080 1.087737 1.248330 1.322590
P_10 1.400268 1.298251 1.331211 1.280823 1.394517 1.216263
P_10 1.386797 1.283577 1.336592 1.200280 1.134395 1.202396
P_10 1.093764 1.010333 0.974552 1.079890 1.101847 1.074930
P_10 1.138089 1.145303 1.149642 1.110666 1.199530 1.217669
P_10 1.147059 1.024105 0.933180 0.970835 0.865293 0.817445
P_10 0.660414 0.567773 0.506875 0.425371 0.382223 0.337264
P_10 0.361067 0.363687 0.430479 0.552169 0.653106 0.711198
P_10 0.897001 0.955970 1.079928 1.132455 1.287259 1.208481
P_10 1.345124 1.409407 1.368194 1.331995 1.307727 1.389107
P_10 1.202855 1.262025 1.123257 1.179756 1.065224 1.036226
P_10 1.068871 1.032922 1.004623 1.021301 1.108649 1.063985
P_10 1.111766 1.194105 1.191358 1.195236 1.186732 1.268669
P_10 1.252612 1.083916 1.096944 0.956759 0.897137 0.743524
P_10 0.668337 0.541884 0.489284 0.460052 0.440874 0.354929
P_10 0.407567 0.455192 0.535604 0.573049 0.662825 0.820841
P_10 1.042521 1.147303 1.266724 1.287428 1.470885 1.485550
P_10 1.616975 1.446771 1.632586 1.487742 1.478027 1.526503
P_10 1.392035 1.405558 1.208667 1.168114 1.258677 1.249923
P_10 1.179044 0.999003 1.146434 1.066516 1.183056 1.162549
P_10 1.151745 1.166496 1.176383 1.157387 1.160881 1.087638
P_10 1.072649 1.050280 1.019997 0.909834 0.881037 0.792207
P_10 0.688422 0.634272 0.579493 0.473904 0.512203 0.427358
P_10 0.450614 0.391961 0.430100 0.416515 0.494614 0.577372
P_10 0.665199 0.768249 0.865405 0.966520 1.059485 1.174483
P_10 1.216982 1.165094 1.362838 1.279911 1.173675 1.175448
P_10 1.330788 1.406310 1.233420 1.288393 1.071652 1.198205
P_10 1.189049 1.085203 1.066256 1.175324 1.125149 1.149834
P_10 1.083746 1.133026 1.033719 1.194620 1.056398 1.032920
P_10 1.011047 0.953166 0.834471 0.873938 0.741377 0.734983
P_10 0.631983 0.524598 0.546004 0.456048 0.454357 0.403381
P_10 0.400424 0.430838 0.385448 0.426726 0.436440 0.470559
P_10 0.532201 0.614168 0.714041 0.724320 0.752910 0.889558
P_10 1.017067 1.026627 1.180552 1.152391 1.229024 1.178527
P_10 1.166462 1.278597 1.267297 1.239991 1.098127 1.083591
P_10 1.015757 0.982091 1.143175 1.089186 0.988694 1.026073
P_10 1.172553 1.103926 1.070052 1.114079 0.964230 1.158900
P_10 1.071173 1.059201 0.783991 0.904490 0.791533 0.637223
P_10 0.659923 0.569528 0.481205 0.419957 0.365699 0.326801
P_10 0.345038 0.409423 0.426263 0.493473 0.559275 0.671497
P_10 0.789940 0.970459 1.170001 1.226445 1.218274 1.388967
P_10 1.364791 1.487785 1.651834 1.533608 1.390193 1.382539
P_10 1.387163 1.360391 1.196932 1.128713 1.073688 1.123973
P_10 0.957969 0.974171 1.030995 1.000106 0.981049 0.954252
P_10 1.072728 1.248732 1.044390 1.163400 1.231448 1.210221
P_10 1.181649 1.113602 1.065657 1.014389 0.910552 0.752282
P_10 0.697568 0.514751 0.474062 0.424942 0.390242 0.371633
P_10 0.364929 0.407111 0.435557 0.516974 0.533424 0.766409
P_10 0.752093 0.925904 0.977874 1.105677 1.174817 1.252398
P_10 1.395397 1.443411 1.416590 1.467802 1.519492 1.320705
P_10 1.228412 1.251788 1.237100 1.131042 1.057133 1.098482
P_10 1.010515 1.062761 1.050342 1.016593 1.098696 1.124485
P_10 1.091023 1.213476 1.193541 1.271426 1.216611 1.090008
P_10 1.121493 1.145796 0.971002 0.971892 0.818783 0.772304
P_10 0.648123 0.526133 0.473740 0.407430 0.375923 0.368827
P_10 0.345169 0.404436 0.455932 0.533584 0.655881 0.738557
P_10 0.798944 0.972987 1.039158 1.171704 1.280758 1.200476
P_10 1.363352 1.360630 1.470037 1.375350 1.318814 1.391852
P_10 1.335197 1.200150 1.272381 1.259275 1.137794 1.171733
P_10 1.240811 1.097406 1.114708 1.124319 1.140701 1.141583
P_10 1.119036 1.195398 1.155216 1.197625 1.211317 1.293292
P_10 1.072602 1.074195 1.040747 0.985075 0.891610 0.787520
P_10 0.702667 0.600960 0.483977 0.429912 0.373236 0.342012
P_10 0.388424 0.407852 0.454176 0.547091 0.578582 0.704124
P_10 0.809027 1.070024 1.094556 1.189646 1.273051 1.399892
P_10 1.453393 1.314880 1.213865 1.424797 1.373708 1.268428
P_10 1.253905 1.220540 1.253709 1.207350 1.065021 1.136336
P_10 1.123802 1.074072 1.043093 1.141529 1.019610 1.183615
P_10 1.235468 1.275939 1.326617 1.196103 1.227873 1.230897
P_10 1.196291 1.192358 1.088278 0.975775 0.802641 0.779618
P_10 0.760598 0.590472 0.560898 0.473281 0.383668 0.386686
P_10 0.363074 0.435309 0.468291 0.565895 0.708478 0.818293
P_10 0.857315 1.124659 1.222209 1.450260 1.395326 1.536062
P_10 1.786422 1.598041 1.609764 1.703889 1.630677 1.546510
P_10 1.490732 1.562325 1.326161 1.273168 1.173105 1.180194
P_10 1.113433 1.128623 1.133702 1.168259 1.159475 1.160873
P_10 1.199722 1.126806 1.284892 1.103670 1.185856 1.139790
P_10 1.155698 0.992648 0.938280 0.975145 0.884012 0.772744
P_10 0.773997 0.623901 0.589919 0.536261 0.488814 0.422429
P_10 0.429027 0.457772 0.467477 0.454460 0.512414 0.597412
P_10 0.617962 0.788640 0.900977 0.978487 1.012307 1.134265
P_10 1.188963 1.240404 1.459169 1.349256 1.366028 1.310544
P_10 1.241586 1.252219 1.282660 1.210662 1.302817 1.146485
P_10 1.119973 1.194651 1.202422 1.182398 1.218730 1.188466
P_10 1.155609 1.228184 1.120896 1.156828 0.985043 0.997890
P_10 0.973645 1.008445 0.911514 0.876723 0.720762 0.722277
P_10 0.698465 0.593836 0.569681 0.509288 0.487122 0.450032
P_10 0.414529 0.395448 0.431615 0.427961 0.484807 0.494454
P_10 0.521015 0.561712 0.703972 0.661643 0.767789 0.949119
P_10 1.009971 1.056980 0.970279 1.186728 1.254518 1.278941
P_10 1.201452 1.279417 1.154447 1.266305 1.213057 1.084406
P_10 1.014973 0.986188 0.912149 1.163646 0.945032 0.996196
P_10 1.116969 1.029249 1.101986 1.094634 1.154912 1.021234
P_10 1.040101 0.984109 0.954123 0.892929 0.820205 0.685803
P_10 0.670739 0.541823 0.466632 0.374816 0.389197 0.348868
P_10 0.368798 0.365413 0.438807 0.505944 0.630478 0.694461
P_10 0.742227 0.913894 1.066966 1.168439 1.296405 1.401345
P_10 1.401168 1.465694 1.530114 1.342895 1.408356 1.416095
P_10 1.556960 1.399151 1.369816 1.167195 1.132378 1.058241
P_10 1.049917 1.004764 1.043793 1.023689 1.030754 0.948157
P_10 1.104602 1.073663 1.157227 1.164718 1.230859 1.156415
P_10 1.211535 1.182402 1.084423 1.028150 0.946567 0.773617
P_10 0.662625 0.563073 0.495910 0.434534 0.415401 0.337932
P_10 0.339999 0.412586 0.464917 0.517586 0.586553 0.744345
P_10 0.785141 0.908500 1.063573 1.063833 1.263673 1.392676
P_10 1.342155 1.370036 1.548221 1.433801 1.421335 1.394919
P_10 1.359802 1.303060 1.303089 1.294848 1.146850 1.074015
P_10 1.006047 1.073565 0.997274 1.028734 1.082596 1.198522
P_10 1.138862 1.124839 1.248676 1.243612 1.322501 1.256040
P_10 1.098391 1.167942 1.114916 0.951451 0.918915 0.759081
P_10 0.696179 0.508628 0.476134 0.418497 0.372313 0.376986
P_10 0.363206 0.438317 0.448760 0.564524 0.630208 0.786665
P_10 0.853365 0.947674 1.201999 1.214016 1.292821 1.374436
P_10 1.447760 1.524232 1.563332 1.494814 1.395149 1.428011
P_10 1.427960 1.353179 1.304169 1.216494 1.236258 1.177479
P_10 1.092924 1.058092 1.130844 1.082612 1.123183 1.177473
P_10 1.152211 1.055633 1.213652 1.250963 1.238071 1.195299
P_10 1.168210 1.119090 1.108733 1.018449 0.798917 0.735033
P_10 0.660656 0.556565 0.510911 0.476286 0.379410 0.403297
P_10 0.383781 0.371344 0.450495 0.535446 0.657178 0.725744
P_10 0.869370 1.012671 1.071555 1.077514 1.348377 1.296519
P_10 1.401339 1.338072 1.484270 1.415719 1.355997 1.313026
P_10 1.296087 1.357148 1.127218 1.156331 1.158071 1.068327
P_10 1.165825 0.980177 1.033428 1.019098 1.092260 1.224245
P_10 1.086017 1.188129 1.226404 1.251998 1.303453 1.186024
P_10 1.123053 1.178050 1.090767 0.972080 0.899084 0.776381
P_10 0.807421 0.661028 0.504625 0.434257 0.394936 0.390589
P_10 0.413040 0.392723 0.523771 0.622825 0.701048 0.796640
P_10 1.084853 1.106815 1.347371 1.326428 1.550150 1.547232
P_10 1.616842 1.724269 1.635668 1.438161 1.467419 1.646714
P_10 1.425891 1.458257 1.392478 1.331668 1.314544 1.180827
P_10 1.237003 1.228223 1.148667 1.175499 1.171530 1.121594
P_10 1.276344 1.169946 1.297965 1.382629 1.039131 1.279196
P_10 1.216729 1.160470 1.032847 1.002787 0.909554 0.823471
P_10 0.785516 0.708728 0.658495 0.521999 0.499797 0.454152
P_10 0.457419 0.397814 0.469551 0.490538 0.540214 0.584697
P_10 0.655180 0.758463 0.830435 0.919835 1.098423 1.147453
P_10 1.292233 1.411032 1.334834 1.590230 1.262421 1.244855
P_10 1.291498 1.349964 1.254270 1.289426 1.328034 1.152714
P_10 1.284374 1.232236 1.254940 1.234184 1.342809 1.298907
P_10 1.167338 1.111310 1.250175 1.096540 1.107722 1.084599
P_10 0.949357 0.923810 0.852906 0.832403 0.717395 0.697890
P_10 0.646510 0.571559 0.530581 0.541026 0.514286 0.432277
P_10 0.429874 0.374041 0.390322 0.435782 0.458661 0.490048
P_10 0.528970 0.575627 0.726573 0.748292 0.880443 1.014370
P_10 1.075801 1.100895 1.147364 1.185094 1.180218 1.227775
P_10 1.277726 1.203542 1.187761 1.238433 1.117097 1.123653
P_10 1.110927 1.035164 1.023176 1.138159 1.019803 1.044181
P_10 1.019573 1.244115 1.129612 1.203467 1.095912 0.956299
P_10 1.114137 0.987784 0.986614 0.941994 0.779762 0.765749
P_10 0.703704 0.528734 0.464474 0.436379 0.370338 0.358383
P_10 0.374594 0.418431 0.446826 0.565810 0.658364 0.712922
P_10 0.809049 1.018141 1.107584 1.222518 1.344366 1.376310
P_10 1.443256 1.455131 1.561252 1.526937 1.538613 1.447090
P_10 1.521472 1.366966 1.226954 1.212677 1.207062 1.063743
P_10 1.107769 1.001036 1.051373 0.985451 1.105728 1.110571
P_10 1.161962 1.215931 1.285604 1.239321 1.261930 1.296060
P_10 1.209845 1.266138 1.015998 1.040578 0.994648 0.786575
P_10 0.722338 0.587358 0.518486 0.406771 0.415610 0.377705
P_10 0.360779 0.434165 0.442110 0.466825 0.666211 0.700924
P_10 0.835946 0.963302 1.046441 1.182072 1.159281 1.296141
P_10 1.383629 1.412044 1.525033 1.337135 1.445424 1.495058
P_10 1.438022 1.270051 1.299456 1.208894 1.221177 1.080874
P_10 1.126860 1.186476 1.037465 1.194699 1.105805 1.134401
P_10 1.233252 1.198755 1.165591 1.317203 1.282384 1.061563
P_10 1.227319 1.203555 0.958375 0.926775 0.935712 0.863297
P_10 0.713992 0.615425 0.512261 0.463402 0.411750 0.378755
P_10 0.377718 0.429370 0.498656 0.571724 0.663277 0.716647
P_10 0.848475 1.015579 1.100317 1.253687 1.299976 1.273946
P_10 1.335222 1.331533 1.496511 1.517276 1.432214 1.444031
P_10 1.337418 1.449216 1.339508 1.196430 1.202607 1.147729
P_10 1.229009 1.083151 1.288893 1.065672 1.199782 1.109212
P_10 1.155167 1.189294 1.308354 1.263070 1.165739 1.329500
P_10 1.228826 1.150562 1.097394 1.036147 0.955564 0.803597
P_10 0.668607 0.573624 0.515919 0.429377 0.402234 0.398096
P_10 0.364161 0.410603 0.506051 0.530087 0.638580 0.827194
P_10 0.818087 0.980323 1.126141 1.210411 1.251636 1.446951
P_10 1.451421 1.438949 1.490225 1.510984 1.438770 1.255576
P_10 1.399028 1.243890 1.250615 1.251389 1.128385 1.162468
P_10 1.213002 0.934075 1.203616 1.166456 1.087925 1.186473
P_10 1.200736 1.113723 1.281397 1.293772 1.316317 1.275310
P_10 1.284119 1.272679 1.114403 1.078834 0.875362 0.771907
P_10 0.739431 0.676765 0.504032 0.452869 0.466503 0.372225
P_10 0.390544 0.445245 0.487801 0.611430 0.717240 0.908489
P_10 0.985813 1.123441 1.270644 1.292236 1.492537 1.621689
P_10 1.805240 1.649908 1.707764 1.679508 1.627408 1.588481
P_10 1.399916 1.316849 1.457198 1.253144 1.242826 1.153579
P_10 1.153867 1.203674 1.217170 1.187281 1.130574 1.245887
P_10 1.197716 1.224304 1.248385 1.236758 1.213152 1.192311
P_10 1.158287 1.105256 0.934057 1.040846 0.886797 0.801696
P_10 0.782867 0.642712 0.685492 0.575361 0.467664 0.467674