; Filename: networks/Net1.inp
; WNTR: 0.1.6
; Created: 2019-04-09 13:09:30
[TITLE]
EPANET Example Network 1
A simple example of modeling chlorine decay. Both bulk and
wall reactions are included.

[JUNCTIONS]
;ID                      Elevation       Demand Pattern                 
 10                               710               0                            ;
 11                               710               0                            ;
 12                               700               0                            ;
 13                               695               0                            ;
 21                               700               0                            ;
 22                               695               0                            ;
 23                               690               0                            ;
 31                               700               0                            ;
 32                               710               0                            ;

[RESERVOIRS]
;ID                                   Head                  Pattern
 9                                800                            ;

[TANKS]
;ID                              Elevation           Init Level            Min Level            Max Level             Diameter           Min Volume Volume Curve        
 2                                850             120             100             150            50.5               0                        ;

[PIPES]
;ID                   Node1                Node2                              Length             Diameter            Roughness           Minor Loss               Status
 10                   10                   11                             10530              18             100               0                 Open   ;
 11                   11                   12                              5280              14             100               0                 Open   ;
 12                   12                   13                              5280              10             100               0                 Open   ;
 21                   21                   22                              5280              10             100               0                 Open   ;
 22                   22                   23                              5280              12             100               0                 Open   ;
 31                   31                   32                              5280               6             100               0                 Open   ;
 110                  2                    12                               200              18             100               0                 Open   ;
 111                  11                   21                              5280              10             100               0                 Open   ;
 112                  12                   22                              5280              12             100               0                 Open   ;
 113                  13                   23                              5280               8             100               0                 Open   ;
 121                  21                   31                              5280               8             100               0                 Open   ;
 122                  22                   32                              5280               6             100               0                 Open   ;

[PUMPS]
;ID                   Node1                Node2                Properties          
 9                    9                    10                   HEAD     1                      ;

[VALVES]
;ID                   Node1                Node2                            Diameter Type              Setting           Minor Loss

[TAGS]
;type      name       tag       

[DEMANDS]
;ID        Demand     Pattern   
10         0.0        P_10      
11         150.0      P_11      
12         150.0      P_12      
13         100.0      P_13      
21         150.0      P_21      
22         200.0      P_22      
23         150.0      P_23      
31         100.0      P_31      
32         100.0      P_32      

[STATUS]
;ID        Setting   
[PATTERNS]
;ID        Multipliers

1 1.000000 1.200000 1.400000 1.600000 1.400000 1.200000
1 1.000000 0.800000 0.600000 0.400000 0.600000 0.800000

P_10 0.600895 0.549933 0.499184 0.430900 0.477982 0.387742
P_10 0.431296 0.403194 0.427084 0.491094 0.531847 0.658545
P_10 0.718501 0.855116 0.973611 1.074504 1.105082 1.195008
P_10 1.262905 1.404022 1.342345 1.334855 1.228836 1.192092
P_10 1.215084 1.201107 1.114181 1.082506 0.927654 0.929422
P_10 0.930036 0.917714 0.811542 0.849602 0.937362 0.964153
P_10 0.932109 1.018982 1.089319 1.002784 1.073659 1.044401
P_10 1.064793 1.074640 0.957629 0.930383 0.912167 0.719340
P_10 0.677856 0.556433 0.492311 0.471591 0.471813 0.393081
P_10 0.398152 0.420631 0.454194 0.509443 0.645244 0.644504
P_10 0.756288 0.791809 0.883153 1.033815 1.159132 1.116341
P_10 1.265254 1.187762 1.269824 1.088798 1.223446 1.297257
P_10 1.263528 1.088352 1.098117 1.052368 1.009777 0.980058
P_10 0.884737 0.869758 0.928377 0.910858 0.921877 0.976934
P_10 1.074743 1.077590 1.188950 1.201907 1.191918 1.120488
P_10 1.056872 1.045905 0.973518 0.930077 0.779052 0.683088
P_10 0.627893 0.549923 0.571061 0.469901 0.389661 0.411895
P_10 0.388771 0.442624 0.508881 0.544963 0.626016 0.696098
P_10 0.809790 0.969044 1.001756 1.032883 1.122729 1.243070
P_10 1.276527 1.228300 1.216303 1.272686 1.261861 1.210579
P_10 1.151365 1.136229 1.143521 0.999448 0.975546 1.036854
P_10 0.988700 0.912533 1.015617 0.954618 0.999409 0.954299
P_10 1.013670 1.066800 1.037543 1.035935 1.173219 1.068629
P_10 1.091035 0.921182 0.928123 0.882611 0.821128 0.744482
P_10 0.670719 0.595471 0.532117 0.440129 0.424879 0.403206
P_10 0.465671 0.448248 0.463323 0.536182 0.589718 0.710647
P_10 0.772361 0.982000 0.943327 1.026896 1.096932 1.239216
P_10 1.177742 1.179874 1.176459 1.142733 1.139786 1.138896
P_10 1.062417 1.064213 1.023696 1.010916 0.956960 1.043069
P_10 0.929000 0.969630 1.020701 0.984444 1.071702 1.030154
P_10 1.025454 1.084827 1.056122 1.053004 1.049378 1.098402
P_10 1.060351 1.023119 0.877153 0.989939 0.825692 0.762118
P_10 0.709612 0.599189 0.562493 0.516369 0.443594 0.406601
P_10 0.454874 0.443470 0.548126 0.535891 0.717279 0.776859
P_10 0.963712 1.040971 1.038241 1.117790 1.209323 1.333773
P_10 1.380288 1.515362 1.350053 1.288579 1.395343 1.320543
P_10 1.284449 1.221898 1.145469 1.104046 1.081614 1.103944
P_10 1.054805 1.008780 0.969408 1.053820 1.040433 1.086730
P_10 1.010756 1.162182 1.050097 1.176600 1.104496 0.995762
P_10 1.073148 0.955068 0.908006 0.876969 0.836867 0.735033
P_10 0.745472 0.661750 0.626194 0.557627 0.493341 0.463955
P_10 0.458502 0.412866 0.436497 0.507467 0.491301 0.590724
P_10 0.633892 0.746288 0.785869 0.888108 0.970617 1.010164
P_10 1.120856 1.173142 1.209868 1.139829 1.094216 1.277841
P_10 1.171659 1.118173 1.026656 1.022005 1.085771 1.151613
P_10 1.114405 1.019605 1.080567 1.100549 1.091714 1.101391
P_10 1.116617 1.098465 1.039626 1.030769 1.005307 1.022506
P_10 0.907432 0.815373 0.845990 0.843032 0.751033 0.657784
P_10 0.594187 0.560043 0.549437 0.538192 0.497667 0.410781
P_10 0.458198 0.422224 0.424765 0.464260 0.464046 0.493069
P_10 0.539490 0.577912 0.611170 0.753839 0.861371 0.831487
P_10 0.926098 0.970283 1.026224 1.025560 1.022976 1.140713
P_10 0.932371 1.065413 1.010145 0.999566 0.917325 1.011876
P_10 0.918877 0.983068 0.852872 0.910865 0.964859 1.013134
P_10 0.956616 1.005203 0.981560 1.086692 1.011164 1.003595
P_10 0.952822 0.940898 0.914046 0.915149 0.778380 0.666424
P_10 0.616612 0.567301 0.484375 0.479374 0.443609 0.395129
P_10 0.382752 0.431329 0.454068 0.517330 0.586362 0.713925
P_10 0.764851 0.898270 0.955554 1.133956 1.105134 1.206425
P_10 1.330299 1.280830 1.361141 1.348392 1.254284 1.228264
P_10 1.212987 1.132546 1.008904 1.038466 1.056005 0.987628
P_10 0.950574 0.879626 0.864717 0.839709 1.016500 0.966597
P_10 0.946604 1.010203 1.049911 1.133534 1.173269 1.084956
P_10 1.121880 1.052889 0.960620 0.846511 0.847041 0.729405
P_10 0.599117 0.568837 0.530430 0.464716 0.441891 0.421236
P_10 0.412609 0.431368 0.433180 0.504434 0.573979 0.687669
P_10 0.763979 0.791147 0.934163 1.074357 1.002684 1.177911
P_10 1.202196 1.203939 1.132659 1.162710 1.204570 1.181468
P_10 1.141345 1.049872 1.007074 1.082370 1.047064 0.940738
P_10 0.894412 0.950040 0.948623 0.920553 0.936871 1.036296
P_10 1.052996 1.103178 1.211185 1.173586 1.143333 1.081935
P_10 1.124981 0.957358 0.990357 0.983798 0.863105 0.749642
P_10 0.672438 0.587141 0.513742 0.431779 0.413672 0.430071
P_10 0.434599 0.397965 0.484478 0.570372 0.651614 0.673430
P_10 0.815365 0.885881 0.995010 1.036919 1.008850 1.235486
P_10 1.186841 1.243512 1.206846 1.224066 1.233159 1.213651
P_10 1.148993 1.118892 1.088737 1.050844 1.094179 0.996195
P_10 0.998169 1.017556 0.984597 1.034468 0.929682 1.009541
P_10 1.059432 1.104089 1.123754 1.076635 1.218230 1.076309
P_10 1.117356 1.095024 1.034724 0.968316 0.844564 0.783794
P_10 0.659649 0.617605 0.566401 0.494622 0.371624 0.448082
P_10 0.438711 0.459726 0.486201 0.543127 0.644621 0.664225
P_10 0.811581 0.937494 0.894000 1.075017 1.104171 1.205723
P_10 1.174608 1.273417 1.233953 1.313573 1.224554 1.195778
P_10 1.111848 1.079214 1.071397 0.947113 1.059210 0.999894
P_10 0.835304 0.943368 0.934493 1.042126 0.966129 1.047560
P_10 0.927005 1.140494 1.141238 1.125596 1.030648 1.064721
P_10 1.076465 1.053648 0.985140 0.915737 0.883777 0.772886
P_10 0.683648 0.638538 0.513943 0.494448 0.437164 0.355634
P_10 0.452467 0.409531 0.564092 0.622627 0.678253 0.723905
P_10 0.915313 1.035358 1.125740 1.275653 1.237102 1.447287
P_10 1.416925 1.438344 1.486657 1.284432 1.431288 1.360787
P_10 1.363519 1.089170 1.265459 1.140068 1.119549 1.088180
P_10 1.134499 1.047304 1.066511 1.052274 1.155003 1.114654
P_10 1.124774 1.072080 1.038035 1.067739 1.079104 1.139471
P_10 1.049734 0.929599 0.995447 0.855385 0.923685 0.806772
P_10 0.740488 0.628957 0.618203 0.565073 0.524413 0.436654
P_10 0.464060 0.404721 0.495427 0.534760 0.536127 0.574133
P_10 0.642699 0.787434 0.858876 0.852828 0.988735 1.068448
P_10 1.054786 1.167622 1.161890 1.133533 1.222404 1.132004
P_10 1.126542 1.122064 1.133996 1.130333 1.040325 1.047995
P_10 1.190846 0.986733 1.061186 1.046003 0.987997 1.051048
P_10 1.041578 0.943827 1.090579 0.996668 1.027617 1.045634
P_10 0.868928 0.863422 0.788180 0.812336 0.805334 0.664441
P_10 0.586958 0.578535 0.582542 0.575263 0.455872 0.487927
P_10 0.474072 0.456637 0.451203 0.448791 0.476550 0.563590
P_10 0.540844 0.583308 0.707073 0.709425 0.896383 0.827421
P_10 0.975737 0.988421 1.173020 0.973398 1.061312 1.115647
P_10 1.017458 1.096702 1.033557 0.981135 1.038734 0.935876
P_10 0.999410 1.043166 0.953501 0.972226 1.039779 0.942517
P_10 0.986409 1.074122 1.034878 1.013028 0.958584 1.007194
P_10 0.981092 0.956618 0.882099 0.922896 0.808404 0.747155
P_10 0.623830 0.581239 0.495253 0.420937 0.430204 0.412901
P_10 0.400703 0.345140 0.456701 0.550362 0.583926 0.664195
P_10 0.750448 0.893698 1.030843 1.130974 1.171666 1.243470
P_10 1.241161 1.424483 1.349503 1.212959 1.382323 1.153531
P_10 1.141406 1.220814 1.050377 1.161212 1.038209 0.994779
P_10 0.951738 0.852170 0.963451 0.945005 0.930686 0.990751
P_10 1.034703 1.007995 1.084388 1.075156 1.135336 1.139244
P_10 1.058246 1.041822 1.050005 0.920508 0.899764 0.768051
P_10 0.694996 0.677014 0.486735 0.510263 0.439496 0.449873
P_10 0.448214 0.461169 0.476209 0.529087 0.567708 0.740557
P_10 0.729789 0.923146 1.050791 1.006247 1.152151 1.183209
P_10 1.284041 1.182376 1.247665 1.273599 1.280587 1.155127
P_10 1.162002 1.218384 1.061043 1.106597 1.030569 1.023049
P_10 0.948060 0.938210 0.936963 0.991950 1.023038 1.026243
P_10 1.112958 1.175201 1.091928 1.113196 1.128391 1.095742
P_10 1.253799 1.032427 0.974485 1.007994 0.806449 0.840154
P_10 0.608665 0.595370 0.475530 0.478069 0.433107 0.413838
P_10 0.402288 0.455018 0.470695 0.574830 0.633509 0.781020
P_10 0.845964 0.900837 1.006810 1.055496 1.076848 1.176626
P_10 1.316335 1.393576 1.181715 1.252983 1.257880 1.178512
P_10 1.319525 1.115261 1.174268 1.137795 1.094415 0.995387
P_10 0.999518 1.000686 1.005572 1.039751 1.081466 1.030630
P_10 1.064072 1.011655 1.122052 1.095928 1.144378 1.122852
P_10 1.011235 1.101971 0.974546 0.898842 0.815252 0.794534
P_10 0.741878 0.575531 0.501718 0.450558 0.437542 0.363367
P_10 0.400898 0.415267 0.504200 0.509778 0.649684 0.696770
P_10 0.852398 0.911335 0.978349 1.024264 1.189416 1.193353
P_10 1.290862 1.245366 1.256905 1.297371 1.243470 1.125063
P_10 1.195769 1.170076 0.985192 1.073497 0.954680 0.994544
P_10 0.986117 0.941804 1.031248 0.957144 1.083131 1.168315
P_10 1.040207 1.043186 1.110490 1.200612 1.170090 1.178674
P_10 1.027362 0.966409 1.024748 0.987993 0.810456 0.745857
P_10 0.776163 0.632765 0.563950 0.513409 0.442368 0.427362
P_10 0.417727 0.484806 0.566997 0.642559 0.675188 0.803135
P_10 0.953177 0.931915 1.172727 1.398484 1.462139 1.351579
P_10 1.452455 1.404489 1.395566 1.470648 1.438134 1.312062
P_10 1.387306 1.299440 1.242115 1.052439 1.132356 0.992753
P_10 1.077442 1.080644 1.154676 1.018636 1.013291 1.024997
P_10 1.123962 1.110153 1.104947 1.045095 1.114413 1.085370
P_10 0.985295 1.014422 1.012114 0.956561 0.830702 0.829031
P_10 0.761645 0.660008 0.605309 0.566343 0.457712 0.464912
P_10 0.492287 0.421987 0.474437 0.510949 0.562935 0.618434
P_10 0.680290 0.811050 0.816047 0.897122 1.035320 1.108599
P_10 1.039851 1.155975 1.146381 1.178304 1.237706 1.094347
P_10 1.191952 1.165837 1.145649 1.157255 1.043752 1.042007
P_10 1.177521 1.156006 1.073920 1.020868 1.111714 1.247960
P_10 1.021156 1.040505 1.095896 1.132567 0.979564 1.024451
P_10 0.864520 0.835302 0.907148 0.923063 0.734806 0.744022
P_10 0.684989 0.591317 0.558224 0.539092 0.524331 0.491068
P_10 0.488387 0.411449 0.484610 0.489498 0.492424 0.539400
P_10 0.582234 0.648433 0.714606 0.705892 0.859002 0.964576
P_10 0.926679 1.143670 1.024005 1.064393 1.129962 1.200060
P_10 1.150215 1.188968 1.068610 1.079876 1.027742 0.966365
P_10 0.993603 0.939880 0.909221 0.918144 0.924653 1.098318
P_10 0.976040 1.023257 0.990635 1.025161 1.091718 1.116529
P_10 1.052489 0.990494 0.781483 0.950376 0.803368 0.738144
P_10 0.624663 0.537207 0.505798 0.482849 0.430260 0.420212
P_10 0.402430 0.428943 0.469910 0.552343 0.610570 0.694289
P_10 0.780358 0.781731 0.962710 1.091653 1.185904 1.111863
P_10 1.253926 1.338641 1.389601 1.328280 1.387017 1.349084
P_10 1.232457 1.227348 1.196243 1.140511 0.930174 0.869492
P_10 1.032137 0.915281 0.925608 0.929407 0.975465 0.979211
P_10 0.931016 1.072889 1.134128 1.229154 1.079314 1.143286
P_10 1.122305 1.134208 1.098583 1.006134 0.850288 0.794687
P_10 0.751813 0.647138 0.554777 0.460822 0.419865 0.415748
P_10 0.393695 0.422524 0.445920 0.553945 0.614939 0.706278
P_10 0.770310 0.971768 0.921360 1.030489 1.053343 1.188729
P_10 1.229063 1.290468 1.287570 1.402207 1.147363 1.262539
P_10 1.232319 1.143661 1.165590 1.048024 1.079207 1.002137
P_10 0.969268 0.896838 1.040792 0.916204 1.010283 1.067812
P_10 1.101225 1.099113 1.066680 1.214537 1.127425 1.122548
P_10 1.059612 1.072477 1.038911 1.008253 0.866896 0.755862
P_10 0.673335 0.641144 0.513449 0.474448 0.448131 0.383486
P_10 0.405616 0.438072 0.497343 0.520172 0.660543 0.761180
P_10 0.847945 0.939465 1.018762 1.208484 1.166778 1.301770
P_10 1.233235 1.128977 1.284104 1.303617 1.204142 1.339189
P_10 1.247799 1.256957 1.205029 1.224012 1.143802 1.090956
P_10 1.057392 1.029325 1.081404 1.033817 1.103854 1.044082
P_10 1.108463 1.130910 1.156306 0.959598 1.194641 1.127725
P_10 1.111126 1.119486 0.984747 0.954097 0.918536 0.737819
P_10 0.680878 0.607431 0.486598 0.468068 0.404077 0.431311
P_10 0.388313 0.418587 0.517634 0.534770 0.618596 0.721884
P_10 0.818336 0.827223 1.053184 1.113542 1.179668 1.283142
P_10 1.286412 1.286085 1.286967 1.317378 1.250435 1.122237
P_10 1.198153 1.124662 1.064015 1.097063 1.051139 0.973403
P_10 1.044864 1.060108 0.991945 1.030593 1.048618 1.118548
P_10 1.174439 1.135020 1.014345 1.152114 1.104692 1.141755
P_10 1.165696 1.050333 1.025827 0.897687 0.919288 0.755247
P_10 0.762209 0.646981 0.552309 0.501226 0.480597 0.427467
P_10 0.453681 0.529465 0.591231 0.674324 0.653430 0.834359
P_10 0.957698 1.036409 1.195164 1.289426 1.251751 1.322137
P_10 1.520115 1.553096 1.549460 1.508346 1.308775 1.296182
P_10 1.289780 1.418315 1.199840 1.196785 1.210079 1.074530
P_10 1.099710 1.141594 1.070530 1.077190 1.135084 1.202204
P_10 1.220421 1.169183 1.218376 1.217478 1.176889 1.125876
P_10 1.089556 0.967839 0.977558 0.919043 0.937931 0.820207
P_10 0.762740 0.694303 0.646998 0.529076 0.533746 0.468687
P_10 0.500528 0.498285 0.489637 0.538711 0.546824 0.602379
P_10 0.719970 0.767231 0.834049 0.859946 0.927171 1.016741
P_10 1.165287 1.214922 1.145073 1.233409 1.295103 1.242191
P_10 1.255432 1.250990 1.128110 1.146994 1.109219 1.083775
P_10 1.114592 1.183119 1.120594 1.074255 1.149222 1.165463
P_10 1.075478 1.071848 1.012000 1.163103 0.990432 1.110502
P_10 1.022925 0.953082 0.896611 0.855192 0.800949 0.772026
P_10 0.674553 0.673259 0.579846 0.589905 0.507573 0.508910
P_10 0.461576 0.414678 0.429744 0.449258 0.506285 0.511185
P_10 0.609564 0.617497 0.647371 0.791958 0.804980 0.860768
P_10 0.938786 1.099353 1.058378 1.020533 1.074083 1.178809
P_10 1.134119 1.132323 1.133790 1.076236 1.017044 0.975747
P_10 1.035770 1.007714 1.000809 0.970360 0.934089 1.032722
P_10 0.987044 0.973651 1.123284 1.042448 1.096239 1.126576
P_10 0.990541 1.041028 0.944410 0.874294 0.788756 0.760080
P_10 0.607208 0.597204 0.512026 0.434022 0.418534 0.400632
P_10 0.429592 0.463802 0.454021 0.525850 0.624004 0.706242
P_10 0.712473 0.984780 0.963499 1.204908 1.218419 1.345121
P_10 1.306294 1.186088 1.428933 1.409958 1.344300 1.387927
P_10 1.293147 1.214451 1.280223 1.150343 1.041725 1.096159
P_10 0.935332 0.920515 1.057625 1.020383 1.007067 1.019716
P_10 1.025570 0.965856 1.148496 1.180802 1.167175 1.122629
P_10 1.186414 1.184756 1.084578 0.906986 0.915667 0.712614
P_10 0.742123 0.586165 0.521289 0.483305 0.428983 0.403919
P_10 0.418485 0.496881 0.500310 0.579239 0.635947 0.696027
P_10 0.783412 0.904471 0.945234 1.003633 1.137097 1.185118
P_10 1.252293 1.251475 1.293898 1.286599 1.374072 1.149098
P_10 1.151688 1.185857 1.118067 1.185550 0.980870 0.978464
P_10 0.978850 0.967773 1.047736 1.072988 0.968725 0.985911
P_10 1.163278 1.160844 1.163996 1.236835 1.208199 1.227618
P_10 1.203816 1.102204 1.066298 0.867767 0.881259 0.771049
P_10 0.681724 0.647436 0.594360 0.481424 0.447668 0.452138
P_10 0.448215 0.475492 0.504697 0.534889 0.662808 0.747893
P_10 0.921171 0.931596 0.990366 1.113915 1.210472 1.283192
P_10 1.157343 1.431582 1.308478 1.311429 1.297499 1.207909
P_10 1.297751 1.248469 1.314167 1.175179 1.157153 1.132582
P_10 1.085816 1.069779 1.041700 1.102313 1.081222 1.137149
P_10 1.118367 1.113301 1.156594 1.139522 1.103716 1.188487
P_10 1.203788 1.156191 1.041365 1.026134 0.962508 0.782332
P_10 0.634913 0.659230 0.596978 0.505695 0.485675 0.437129
P_10 0.405422 0.433325 0.511203 0.581879 0.698110 0.765783
P_10 0.845340 0.973228 1.040095 1.084491 1.315158 1.356039
P_10 1.299222 1.215729 1.436480 1.366798 1.256684 1.302631
P_10 1.190263 1.164013 1.067580 1.147506 1.061737 1.085297
P_10 0.952729 1.053353 1.054104 1.012807 1.091126 1.165430
P_10 1.138089 1.172639 1.199509 1.206811 1.164220 1.265885
P_10 1.142079 1.118151 1.108731 0.991895 0.905796 0.825643
P_10 0.768515 0.634567 0.548050 0.552971 0.494893 0.427549
P_10 0.436287 0.495339 0.560819 0.617462 0.724433 0.787464
P_10 0.985523 1.075661 1.120242 1.337647 1.282921 1.454400
P_10 1.533995 1.490795 1.524383 1.594913 1.438090 1.468945
P_10 1.438561 1.240860 1.219598 1.291872 1.120898 1.237800
P_10 1.115771 1.160557 1.070449 1.069276 1.149546 1.147643
P_10 1.181067 1.112434 1.121684 1.199596 1.047530 1.114718
P_10 1.137341 1.183265 0.962662 0.911234 1.016759 0.821084
P_10 0.770383 0.683837 0.596419 0.512844 0.555204 0.510054
P_10 0.485792 0.498892 0.520444 0.518466 0.531019 0.616281
P_10 0.732465 0.763727 0.835659 0.882826 0.994245 1.207521
P_10 1.219614 1.228978 1.250629 1.272357 1.297724 1.229930
P_10 1.188214 1.234024 1.162642 1.096856 1.065667 1.069617
P_10 1.080201 1.129463 1.135166 1.175024 1.114922 1.140850
P_10 0.962272 1.120258 1.101367 1.209791 1.010923 1.001794
P_10 0.975809 0.930801 0.927232 0.829663 0.842619 0.725261
P_10 0.674908 0.630791 0.618714 0.546398 0.514120 0.482081
P_10 0.480182 0.501452 0.457023 0.488795 0.503797 0.491654
P_10 0.545748 0.604014 0.722155 0.721761 0.844897 0.938245
P_10 1.122107 1.064540 1.140042 1.050744 1.242038 1.070850
P_10 1.134571 1.125765 1.143962 0.993106 1.181439 1.027867
P_10 1.034406 0.982862 0.973619 1.034815 1.026548 1.175523
P_10 1.109353 1.032384 1.127455 1.073524 1.083161 1.092817
P_10 1.033209 1.016169 0.902759 0.912751 0.796162 0.829048
P_10 0.660288 0.543174 0.545016 0.433772 0.417491 0.372288
P_10 0.397414 0.435851 0.491105 0.598783 0.636762 0.698680
P_10 0.760291 0.980256 1.047399 1.161756 1.265256 1.348412
P_10 1.359372 1.430373 1.365792 1.399564 1.345063 1.306525
P_10 1.222589 1.121678 1.292998 1.065902 1.122929 1.042820
P_10 0.860906 0.966283 0.975153 0.917485 1.029558 1.025115
P_10 1.059721 1.069363 1.148747 1.230958 1.218158 1.119432
P_10 1.260804 1.037703 1.046102 0.972633 0.889136 0.847236
P_10 0.732960 0.643814 0.534725 0.522416 0.446518 0.400314
P_10 0.452233 0.414592 0.457258 0.599951 0.632497 0.704771
P_10 0.775227 0.963278 0.988186 0.980538 1.238061 1.119648
P_10 1.303541 1.285381 1.277528 1.369387 1.259123 1.297655
P_10 1.197674 1.231131 1.103715 1.164523 1.019727 1.056791
P_10 1.028667 1.051281 1.042531 1.026172 1.091623 1.146673
P_10 1.141290 1.134853 1.249754 1.152865 1.023251 1.242036
P_10 1.159824 1.085578 1.194553 0.956575 0.842551 0.805499
P_10 0.734146 0.611011 0.524539 0.499164 0.477167 0.471612
P_10 0.449991 0.481404 0.536716 0.531441 0.663055 0.860146
P_10 0.912765 0.953864 1.030609 1.148733 1.195932 1.158563
P_10 1.372524 1.308109 1.234711 1.492340 1.432696 1.297218
P_10 1.298141 1.363143 1.211016 1.191136 1.082681 1.171487
P_10 1.099572 1.089845 1.086195 1.132382 1.058943 1.092949
P_10 1.150917 1.270272 1.184393 1.247551 1.284745 1.115096
P_10 1.206359 1.101063 1.027832 1.055183 0.924254 0.886956
P_10 0.712520 0.605865 0.554358 0.512466 0.432603 0.448170
P_10 0.433640 0.487256 0.503765 0.578033 0.657328 0.789218
P_10 0.859159 1.062848 1.101437 1.161063 1.139960 1.244616
P_10 1.383907 1.358320 1.316776 1.368324 1.368814 1.404433
P_10 1.173300 1.107470 1.179244 1.116699 1.059899 1.098249
P_10 1.051608 1.029626 1.068571 1.075590 1.057509 1.137018
P_10 1.178485 1.147949 1.264197 1.226189 1.207167 1.213591
P_10 1.212261 1.119988 1.030598 0.984773 0.956508 0.741567
P_10 0.807728 0.640183 0.568087 0.508462 0.517180 0.469299
P_10 0.448150 0.558174 0.598820 0.655292 0.719575 0.778741
P_10 1.012967 1.134798 1.314195 1.217251 1.480363 1.363194
P_10 1.739007 1.536949 1.532598 1.518208 1.477554 1.454904
P_10 1.329332 1.286444 1.286412 1.183335 1.125159 1.122262
P_10 1.199688 1.067869 1.216086 1.095013 1.273457 1.176831
P_10 1.088681 1.140560 1.246438 1.217570 1.142360 1.198068
P_10 1.158453 1.169078 1.068378 1.090168 0.835480 0.812122
P_10 0.761551 0.727480 0.615707 0.584185 0.571270 0.487533
P_10 0.464845 0.481089 0.535186 0.547782 0.564963 0.706237
P_10 0.777155 0.823753 0.872926 1.032993 1.055468 1.092397
P_10 1.119774 1.292287 1.311117 1.249248 1.231917 1.248742
P_10 1.240634 1.234719 1.150584 1.249021 1.186037 1.124248
P_10 1.207788 1.157586 1.231730 1.185527 1.213098 1.193324
P_10 1.142594 1.102014 1.134949 1.237658 1.082856 1.168458
P_10 0.989780 0.922452 0.837729 0.890279 0.797490 0.736509
P_10 0.660226 0.665754 0.641504 0.530870 0.521754 0.482366
P_10 0.484788 0.478452 0.444626 0.498219 0.503290 0.546672
P_10 0.552648 0.634303 0.697446 0.821668 0.881370 1.021797
P_10 1.010911 1.117593 1.167423 1.155333 1.173211 1.159246
P_10 1.279357 1.207644 1.172492 1.076761 1.171539 1.050981
P_10 1.046362 1.046137 1.004028 1.041200 1.051926 1.145183
P_10 1.058084 1.066116 1.127036 1.152252 1.179506 1.059203
P_10 1.108659 1.017818 1.051329 0.909530 0.839276 0.818968
P_10 0.691395 0.647556 0.513424 0.440788 0.437454 0.431177
P_10 0.393008 0.445995 0.499951 0.513225 0.640634 0.714298
P_10 0.865050 1.005387 0.998616 1.066259 1.259627 1.354301
P_10 1.319367 1.504086 1.442058 1.408859 1.327340 1.323546
P_10 1.379678 1.343778 1.228222 1.109648 1.128634 1.120465
P_10 1.011097 0.989868 0.929079 1.062199 0.919295 1.071967
P_10 1.031932 1.123384 1.154145 1.191157 1.193983 1.315863
P_10 1.206107 1.233436 1.048081 0.936319 0.918669 0.887696
P_10 0.792973 0.695165 0.586344 0.517140 0.478514 0.469049
P_10 0.441315 0.464230 0.516374 0.543782 0.584360 0.725522
P_10 0.846367 0.938723 1.056568 1.170883 1.253353 1.289147
P_10 1.363997 1.207140 1.439339 1.262446 1.447278 1.361320
P_10 1.218929 1.316540 1.151368 1.188541 1.077357 1.027163
P_10 1.073126 1.051649 1.058222 1.012509 1.030743 1.147741
P_10 1.133924 1.201247 1.153400 1.305745 1.340674 1.350269
P_10 1.302397 1.192424 1.033794 1.024363 0.867654 0.796617
P_10 0.687080 0.622305 0.559368 0.540962 0.471595 0.445290
P_10 0.456924 0.476783 0.581334 0.653807 0.723649 0.749893
P_10 0.959009 0.949000 1.042870 1.210233 1.278545 1.364756
P_10 1.377999 1.363451 1.413130 1.370121 1.332129 1.391767
P_10 1.349027 1.336089 1.266758 1.235473 1.167345 1.171182
P_10 1.066191 1.029217 1.086218 1.206801 1.148519 1.179770
P_10 1.118300 1.254089 1.276069 1.156596 1.200761 1.180712
P_10 1.144937 1.215111 1.149693 1.042818 0.972377 0.845588
P_10 0.714777 0.700444 0.566526 0.557330 0.447246 0.457760
P_10 0.428103 0.497133 0.558575 0.606922 0.751065 0.791822
P_10 0.862499 1.046417 1.129496 1.211616 1.209775 1.405385
P_10 1.440605 1.342587 1.339316 1.448937 1.245527 1.219011
P_10 1.206682 1.099478 1.147793 1.118851 1.152198 1.140649
P_10 1.115893 1.074849 1.061460 1.105183 1.157663 1.195252
P_10 1.060876 1.266841 1.180409 1.262471 1.224311 1.201132
P_10 1.224388 1.280739 1.117871 1.088906 0.968949 0.876952
P_10 0.808513 0.627692 0.583489 0.563422 0.527585 0.518717
P_10 0.480522 0.507306 0.569165 0.684525 0.748195 0.856193
P_10 1.028611 1.076333 1.217268 1.330125 1.439787 1.627036
P_10 1.527763 1.683682 1.577609 1.545255 1.490687 1.424702
P_10 1.451300 1.354253 1.395110 1.162843 1.214730 1.099448
P_10 1.153451 1.115227 1.226561 1.127834 1.128034 1.180394
P_10 1.168739 1.237449 1.109991 1.134317 1.189980 1.178203
P_10 1.221274 1.135201 1.005436 1.001961 0.932594 0.799888
P_10 0.729025 0.744184 0.722944 0.608452 0.561602 0.500632
P_10 0.491574 0.489896 0.524821 0.565453 0.556838 0.642745
P_10 0.741066 0.880036 0.900405 0.982622 1.057258 1.177537
P_10 1.342787 1.288683 1.348830 1.401641 1.280727 1.319786
P_10 1.274317 1.232344 1.190377 1.154640 1.186834 1.197941
P_10 1.215387 1.235490 1.277803 1.252881 1.080592 1.197952
P_10 1.057322 1.184061 1.079219 1.125857 1.114597 1.064667
P_10 1.071733 0.996623 0.906357 0.850217 0.865999 0.750685
P_10 0.714262 0.676856 0.619905 0.543685 0.550109 0.501150
P_10 0.468529 0.471741 0.512798 0.480743 0.517797 0.531019
P_10 0.601248 0.667476 0.751088 0.828633 0.910756 0.967254
P_10 1.050146 1.070153 1.126874 1.131806 1.150670 1.201950
P_10 1.211644 1.207924 1.227134 1.111717 1.082511 1.091426
P_10 1.104546 1.027759 1.075868 1.068274 1.075788 1.022104
P_10 1.044712 1.176842 0.983116 1.075352 1.112785 1.180832
P_10 1.065679 0.970343 0.951378 0.946676 0.949770 0.792021
P_10 0.676513 0.670479 0.536229 0.527491 0.469709 0.430536
P_10 0.459714 0.475293 0.521249 0.600912 0.708189 0.782912
P_10 0.838465 0.942864 1.029671 1.148265 1.298263 1.170057
P_10 1.439694 1.359185 1.395703 1.656963 1.356419 1.506831
P_10 1.281265 1.301629 1.307569 1.240268 1.096485 1.018707
P_10 1.020512 1.080734 1.010810 0.999484 0.895838 1.075276
P_10 1.099259 1.088514 1.165170 1.106481 1.229817 1.327841
P_10 1.134274 1.042509 1.131400 0.986294 0.851644 0.842063
P_10 0.728648 0.634867 0.610774 0.548309 0.488984 0.451472
P_10 0.499183 0.510031 0.507075 0.595250 0.706920 0.780813
P_10 0.876618 0.937900 0.991257 1.132220 1.253360 1.314764
P_10 1.333071 1.329227 1.462913 1.388682 1.325433 1.338432
P_10 1.293413 1.201707 1.268137 1.180509 1.198502 1.074010
P_10 1.089055 1.098464 1.015846 1.021186 1.116581 1.072571
P_10 1.008055 1.185851 1.237971 1.155136 1.245635 1.301600
P_10 1.156244 1.198105 1.072795 1.040177 0.995757 0.894297
P_10 0.770587 0.676561 0.611161 0.551130 0.516753 0.465825
P_10 0.468764 0.499642 0.524103 0.604251 0.753626 0.807866
P_10 0.857444 0.939102 1.137611 1.177443 1.269954 1.377236
P_10 1.386470 1.412927 1.441377 1.431335 1.275274 1.492527
P_10 1.379029 1.312667 1.234209 1.183062 1.152005 1.138716
P_10 1.150988 1.157040 1.133746 1.144600 1.138236 1.061781
P_10 1.238812 1.210367 1.161578 1.250815 1.212953 1.270070
P_10 1.245913 1.117330 1.116835 1.047517 0.948192 0.881206
P_10 0.774653 0.599382 0.593848 0.534973 0.470646 0.436343
P_10 0.480080 0.478624 0.568088 0.635147 0.655717 0.742811
P_10 0.928559 0.993648 1.098577 1.190860 1.453247 1.354181
P_10 1.359193 1.342070 1.457342 1.372568 1.376196 1.301490
P_10 1.363121 1.163613 1.200732 1.101635 1.124322 1.108422
P_10 1.060930 1.187701 1.100990 1.247626 1.067183 1.146434
P_10 1.302287 1.089610 1.211739 1.233790 1.246377 1.330025
P_10 1.286972 1.113695 1.087935 0.992439 0.928791 0.803696
P_10 0.770098 0.727911 0.625562 0.538842 0.555751 0.483169
P_10 0.442782 0.492896 0.673137 0.688112 0.782443 0.850634
P_10 0.876944 1.084187 1.367374 1.423364 1.504637 1.520311
P_10 1.520220 1.545081 1.481000 1.629135 1.592124 1.392301
P_10 1.452745 1.345265 1.264506 1.277179 1.291190 1.235949
P_10 1.303922 1.146342 1.206196 1.132555 1.251868 1.243404
P_10 1.228805 1.423644 1.199034 1.200583 1.278470 1.218236
P_10 1.188291 1.201964 1.043384 0.978798 0.906835 0.870742
P_10 0.892818 0.774561 0.633046 0.615997 0.518130 0.497243