; Filename: networks/Net1.inp
; WNTR: 0.1.6
; Created: 2019-04-09 13:24:32
[TITLE]
EPANET Example Network 1
A simple example of modeling chlorine decay. Both bulk and
wall reactions are included.

[JUNCTIONS]
;ID                      Elevation       Demand Pattern                 
 10                               710               0                            ;
 11                               710               0                            ;
 12                               700               0                            ;
 13                               695               0                            ;
 21                               700               0                            ;
 22                               695               0                            ;
 23                               690               0                            ;
 31                               700               0                            ;
 32                               710               0                            ;

[RESERVOIRS]
;ID                                   Head                  Pattern
 9                                800                            ;

[TANKS]
;ID                              Elevation           Init Level            Min Level            Max Level             Diameter           Min Volume Volume Curve        
 2                                850             120             100             150            50.5               0                        ;

[PIPES]
;ID                   Node1                Node2                              Length             Diameter            Roughness           Minor Loss               Status
 10                   10                   11                             10530              18             100               0                 Open   ;
 11                   11                   12                              5280              14             100               0                 Open   ;
 12                   12                   13                              5280              10             100               0                 Open   ;
 21                   21                   22                              5280              10             100               0                 Open   ;
 22                   22                   23                              5280              12             100               0                 Open   ;
 31                   31                   32                              5280               6             100               0                 Open   ;
 110                  2                    12                               200              18             100               0                 Open   ;
 111                  11                   21                              5280              10             100               0                 Open   ;
 112                  12                   22                              5280              12             100               0                 Open   ;
 113                  13                   23                              5280               8             100               0                 Open   ;
 121                  21                   31                              5280               8             100               0                 Open   ;
 122                  22                   32                              5280               6             100               0                 Open   ;

[PUMPS]
;ID                   Node1                Node2                Properties          
 9                    9                    10                   HEAD     1                      ;

[VALVES]
;ID                   Node1                Node2                            Diameter Type              Setting           Minor Loss

[TAGS]
;type      name       tag       

[DEMANDS]
;ID        Demand     Pattern   
10         0.0        P_10      
11         150.0      P_11      
12         150.0      P_12      
13         100.0      P_13      
21         150.0      P_21      
22         200.0      P_22      
23         150.0      P_23      
31         100.0      P_31      
32         100.0      P_32      

[STATUS]
;ID        Setting   
[PATTERNS]
;ID        Multipliers

1 1.000000 1.200000 1.400000 1.600000 1.400000 1.200000
1 1.000000 0.800000 0.600000 0.400000 0.600000 0.800000

P_10 0.610839 0.529993 0.486635 0.376707 0.373120 0.382029
P_10 0.330890 0.386467 0.411087 0.455390 0.484724 0.630390
P_10 0.683985 0.773583 0.940140 1.079394 1.087721 1.057532
P_10 1.303957 1.327317 1.300323 1.259330 1.273955 1.185674
P_10 1.254074 1.152519 1.055561 0.998647 0.984205 0.915102
P_10 0.937186 0.878275 0.816541 0.881172 0.886464 0.902750
P_10 1.034124 0.970180 1.065817 1.051192 1.058197 1.076524
P_10 1.038431 0.898932 0.949219 0.920087 0.855703 0.680590
P_10 0.666851 0.551092 0.477925 0.428196 0.385402 0.389847
P_10 0.327302 0.370636 0.419469 0.498874 0.531349 0.673163
P_10 0.803825 0.836710 0.946295 1.006524 1.027481 1.061761
P_10 1.175563 1.287872 1.203820 1.166206 1.047268 1.203021
P_10 1.155137 1.126794 0.930221 1.018650 1.015314 1.001092
P_10 1.016187 0.945176 0.905254 1.006956 0.932135 0.935094
P_10 1.090102 1.058916 1.171218 1.067511 1.132013 1.128240
P_10 1.096138 1.018859 0.915936 0.885532 0.800038 0.725864
P_10 0.642824 0.559086 0.487391 0.425221 0.374808 0.374640
P_10 0.356495 0.389780 0.426886 0.528619 0.647091 0.696975
P_10 0.718000 0.811336 0.983568 0.972407 1.112608 1.096058
P_10 1.197189 1.330798 1.171840 1.244818 1.302957 1.106351
P_10 1.315998 1.152544 1.159386 1.008735 1.038483 0.896755
P_10 0.964456 0.927469 0.938637 1.022180 0.930871 0.987650
P_10 1.058578 1.034437 1.042930 1.154462 1.045447 1.074550
P_10 1.016737 1.053818 1.029698 0.825516 0.821384 0.718251
P_10 0.621207 0.539788 0.495565 0.452515 0.389679 0.376148
P_10 0.352855 0.389742 0.390294 0.519698 0.564741 0.654120
P_10 0.779199 0.859575 0.996216 1.045570 1.103485 1.144906
P_10 1.174257 1.209349 1.293772 1.223615 1.186451 1.117290
P_10 1.177509 0.981588 1.111710 1.041336 0.997346 1.018620
P_10 0.938983 1.043138 0.980961 1.019455 0.978913 1.041044
P_10 1.021650 1.139493 1.066586 1.075737 1.030120 1.111559
P_10 1.013113 1.026161 0.978306 0.872299 0.889639 0.648025
P_10 0.679638 0.574712 0.501671 0.435077 0.409861 0.412837
P_10 0.385302 0.410798 0.489896 0.521923 0.712842 0.704245
P_10 0.841791 0.902809 1.076486 1.110267 1.286575 1.298325
P_10 1.325512 1.483420 1.343106 1.449599 1.227414 1.345948
P_10 1.232499 1.250811 1.202923 1.092919 1.041010 0.997192
P_10 1.056667 1.032533 0.922727 0.894285 0.990708 1.037226
P_10 1.010195 1.045599 0.986406 1.039713 1.083949 0.992863
P_10 1.044340 0.927874 0.918521 0.938437 0.852689 0.802222
P_10 0.709342 0.599024 0.550004 0.495894 0.456571 0.432089
P_10 0.453335 0.430662 0.414856 0.431167 0.513158 0.553728
P_10 0.630472 0.696896 0.738762 0.837622 0.924564 0.937204
P_10 1.058091 1.093405 1.221824 1.078905 1.134116 1.143506
P_10 1.025218 1.142904 1.036161 1.205296 1.077980 0.997852
P_10 1.034305 1.025545 1.032898 1.032272 1.106741 1.030275
P_10 1.056660 1.038938 0.950091 1.040832 1.021497 0.992189
P_10 0.911971 0.830728 0.789649 0.746212 0.739061 0.674729
P_10 0.646991 0.622360 0.494562 0.482158 0.455074 0.419367
P_10 0.407134 0.395192 0.386866 0.401165 0.410148 0.458613
P_10 0.453277 0.555047 0.614305 0.666588 0.816608 0.845443
P_10 0.861125 0.933392 0.968810 0.983822 1.097255 1.058999
P_10 1.082259 1.118658 1.002145 0.950076 1.064533 0.953851
P_10 1.000404 0.941122 0.902111 0.988981 0.927153 0.991045
P_10 0.973891 0.992146 0.936664 1.027054 1.058213 1.027544
P_10 1.029561 0.931496 0.878029 0.811327 0.725093 0.690860
P_10 0.644629 0.566503 0.461885 0.395530 0.370806 0.351069
P_10 0.349480 0.384086 0.403309 0.458779 0.567235 0.601965
P_10 0.721904 0.794240 0.964905 1.056501 1.217101 1.206901
P_10 1.294952 1.236707 1.250579 1.410583 1.376678 1.208646
P_10 1.279467 1.195351 1.115308 0.983556 0.960219 0.894545
P_10 0.877045 0.929130 0.903944 0.931011 0.925554 0.859069
P_10 1.099695 1.042882 1.117458 1.030509 1.046426 1.103296
P_10 1.084186 0.944615 0.976407 0.882393 0.774247 0.720809
P_10 0.644463 0.585357 0.509542 0.436064 0.382275 0.378759
P_10 0.354289 0.422419 0.432142 0.501417 0.523255 0.627508
P_10 0.762431 0.857212 0.948104 0.954215 0.985819 1.103433
P_10 1.188092 1.204294 1.222760 1.140667 1.205791 1.224121
P_10 1.199286 1.095127 1.071903 0.972414 0.976530 0.900145
P_10 0.909883 0.931172 0.982169 0.946136 0.908688 1.023278
P_10 1.162049 1.032455 1.025382 1.095162 1.175903 1.144378
P_10 1.196501 1.078484 0.905124 0.991393 0.887839 0.732604
P_10 0.614559 0.543517 0.475492 0.425107 0.394043 0.371974
P_10 0.378370 0.411969 0.457420 0.481735 0.596394 0.696760
P_10 0.759886 0.898819 0.959796 1.030342 1.080820 1.115087
P_10 1.143002 1.264560 1.211206 1.230045 1.111779 1.229709
P_10 1.305557 1.182502 1.038602 1.097310 1.111213 0.956445
P_10 1.075769 0.931371 0.984868 0.980419 0.965839 0.966752
P_10 1.047487 1.062259 0.994756 1.072370 1.040563 1.137455
P_10 1.015265 0.999553 1.045475 0.930057 0.886117 0.779262
P_10 0.702036 0.583509 0.468940 0.435884 0.408337 0.367617
P_10 0.385356 0.403418 0.444450 0.528038 0.565858 0.659293
P_10 0.757753 0.856810 0.929062 0.988102 1.109780 1.211818
P_10 1.150729 1.334255 1.225516 1.135728 1.138360 1.247368
P_10 1.123331 1.110062 1.046827 1.017129 1.016103 0.965887
P_10 0.960592 0.976123 1.007184 1.012249 0.989249 1.000982
P_10 1.161968 1.101485 1.126655 1.160334 1.233866 1.104415
P_10 1.057248 1.051246 0.957861 0.901183 0.779086 0.808935
P_10 0.687793 0.554050 0.509496 0.454960 0.480639 0.383358
P_10 0.430279 0.432788 0.524673 0.530095 0.639430 0.721879
P_10 0.879761 1.023042 1.144858 1.124730 1.298640 1.361912
P_10 1.428684 1.397000 1.498586 1.300201 1.346018 1.244813
P_10 1.283750 1.241967 1.180136 1.305523 1.123993 1.035389
P_10 1.050889 1.028113 1.087455 0.991774 1.095525 1.116233
P_10 1.051193 1.041812 1.074437 1.020459 1.096525 1.070246
P_10 0.960009 1.016211 0.904746 0.904074 0.745648 0.771103
P_10 0.687453 0.676109 0.595676 0.534343 0.492916 0.477238
P_10 0.401527 0.423939 0.439543 0.432513 0.477569 0.594993
P_10 0.571132 0.686633 0.764058 0.900781 0.917911 1.106078
P_10 0.968752 1.092999 1.025082 1.143501 1.115024 1.247596
P_10 1.360069 1.200297 1.114391 1.122850 1.141757 1.054977
P_10 1.095693 1.079578 1.080851 1.124851 1.035757 1.113404
P_10 1.067688 1.075509 0.981811 1.054706 0.949345 0.985231
P_10 0.919485 0.921556 0.841119 0.780798 0.737020 0.728832
P_10 0.637826 0.598215 0.548568 0.512350 0.451526 0.405617
P_10 0.407088 0.429649 0.426815 0.393980 0.457679 0.439708
P_10 0.506548 0.563354 0.667980 0.680596 0.755079 0.900828
P_10 0.972219 0.887604 1.049270 1.051208 1.272514 1.120206
P_10 1.088496 1.118104 1.020061 1.118256 1.102059 0.960833
P_10 0.980089 0.942219 0.991854 1.007525 0.936132 1.032936
P_10 1.000619 0.942082 1.060742 1.068944 1.082599 1.047186
P_10 1.077248 1.013132 0.897574 0.888985 0.753018 0.637107
P_10 0.615268 0.513293 0.516953 0.445094 0.389654 0.372363
P_10 0.366356 0.385922 0.406333 0.487095 0.595902 0.632021
P_10 0.732111 0.793643 1.027268 1.029602 1.152421 1.237134
P_10 1.310550 1.300251 1.277729 1.330507 1.438644 1.316036
P_10 1.254040 1.156021 1.109356 0.871377 1.052007 0.992336
P_10 0.916486 0.927676 0.945699 0.925485 1.056657 0.958777
P_10 1.010190 1.099194 1.040968 1.056391 1.109057 1.069213
P_10 1.038598 1.065916 0.972750 1.008126 0.912655 0.771275
P_10 0.694898 0.588706 0.526664 0.465031 0.408902 0.403662
P_10 0.388649 0.397478 0.439584 0.471421 0.624622 0.671456
P_10 0.730899 0.813214 0.920686 0.988627 0.905502 1.166152
P_10 1.203173 1.265731 1.220376 1.163068 1.208758 1.249506
P_10 1.219611 1.130938 1.156436 1.064378 0.978768 1.009935
P_10 0.952422 0.857144 0.960721 0.926582 0.926018 1.070608
P_10 1.121484 1.137405 1.136475 1.228827 1.200134 1.194507
P_10 1.150885 1.054026 0.939728 0.923614 0.909670 0.784873
P_10 0.603327 0.562245 0.496297 0.463668 0.422994 0.413246
P_10 0.395774 0.433568 0.500398 0.531997 0.556680 0.684055
P_10 0.815023 0.839931 0.978531 1.044380 1.083990 1.100304
P_10 1.265272 1.352250 1.269912 1.308118 1.305135 1.258658
P_10 1.270437 1.161716 1.111305 1.190211 1.118699 1.075859
P_10 1.031248 1.044753 1.049802 1.016186 1.067885 1.090555
P_10 1.018122 0.997496 1.153676 1.252274 1.029853 1.049061
P_10 1.062170 1.042092 0.939364 0.919044 0.843423 0.747304
P_10 0.650391 0.503296 0.546391 0.415114 0.390988 0.356115
P_10 0.361277 0.400667 0.491078 0.510666 0.577089 0.688428
P_10 0.830519 0.908564 0.973468 1.074479 1.086533 1.059111
P_10 1.151006 1.204525 1.178752 1.061732 1.254318 1.138373
P_10 1.117125 1.105495 1.141267 1.030366 1.048294 1.031364
P_10 0.955223 1.071290 0.998301 1.059798 1.073700 1.109939
P_10 1.053608 1.021642 1.129648 1.028707 1.222841 1.020307
P_10 1.099399 1.013022 0.958309 0.871265 0.868697 0.749243
P_10 0.729978 0.641537 0.534256 0.493654 0.447390 0.351922
P_10 0.426250 0.412127 0.454709 0.603950 0.647100 0.742922
P_10 0.936562 1.063269 1.133757 1.178063 1.400759 1.377997
P_10 1.384750 1.425508 1.357804 1.434320 1.378569 1.434884
P_10 1.354638 1.290258 1.124227 1.102291 1.161412 1.116481
P_10 1.091791 1.070727 1.063809 1.077254 1.110832 1.070927
P_10 1.113841 1.094001 1.116418 1.023700 1.109034 0.966844
P_10 1.051187 1.016596 1.045421 0.965025 0.862632 0.761599
P_10 0.695993 0.693250 0.630254 0.537204 0.476777 0.467302
P_10 0.458323 0.417854 0.414803 0.480506 0.525992 0.592303
P_10 0.652978 0.746523 0.788513 0.892063 0.907313 1.033104
P_10 1.092002 1.164687 1.111674 1.245902 1.161709 1.246426
P_10 1.230154 1.155788 1.253727 1.118208 1.174569 1.107644
P_10 1.090786 0.992878 1.093873 1.073818 1.182808 1.145803
P_10 1.055817 1.053426 1.077427 1.112666 1.048893 0.914290
P_10 0.904420 0.870769 0.854700 0.762784 0.750152 0.733910
P_10 0.640782 0.645635 0.576806 0.492788 0.451836 0.449259
P_10 0.446867 0.408179 0.412079 0.430397 0.431819 0.447717
P_10 0.539405 0.620417 0.657171 0.695170 0.766155 0.866984
P_10 0.915543 0.994775 1.046341 1.141290 1.128078 1.076678
P_10 0.961330 1.112213 1.037479 1.148952 1.025762 0.939863
P_10 0.961483 0.987181 0.874084 1.003749 1.019251 0.958755
P_10 1.020843 1.104581 1.036000 1.071596 1.123490 1.066444
P_10 0.991865 1.083615 0.882742 0.910239 0.761908 0.744561
P_10 0.687595 0.588649 0.488692 0.430449 0.390403 0.370165
P_10 0.396505 0.407346 0.455436 0.502507 0.547161 0.639946
P_10 0.771929 0.827447 0.992195 1.098915 1.211147 1.281999
P_10 1.242348 1.237496 1.441640 1.260658 1.222744 1.367808
P_10 1.308290 1.162673 1.222176 1.181362 0.961466 1.040770
P_10 0.975656 0.912308 0.903554 0.948157 0.883882 0.950897
P_10 1.096985 1.022069 1.024926 1.035230 1.097924 1.158874
P_10 1.204591 0.975817 0.928622 0.933714 0.830358 0.742010
P_10 0.730920 0.592770 0.558781 0.434404 0.438608 0.412364
P_10 0.422603 0.401918 0.468655 0.527327 0.570185 0.646780
P_10 0.797607 0.815709 1.000186 1.030807 1.241169 1.149822
P_10 1.201677 1.253308 1.390370 1.272626 1.333735 1.257352
P_10 1.081936 1.178748 1.166607 1.143946 0.982433 0.944736
P_10 1.038569 0.956546 1.011251 0.954841 1.088747 1.079994
P_10 1.143637 1.071972 1.238612 1.239138 1.228057 1.212190
P_10 1.138359 1.094645 1.019453 0.851157 0.829116 0.788490
P_10 0.682205 0.599468 0.464879 0.435750 0.432146 0.363261
P_10 0.397857 0.414211 0.457273 0.580632 0.552515 0.720431
P_10 0.825598 0.955050 1.017079 1.104644 1.147124 1.203318
P_10 1.193589 1.255375 1.206803 1.327257 1.324651 1.257478
P_10 1.250333 1.162565 1.284671 1.170463 1.177234 1.155134
P_10 1.081295 1.032057 0.977707 1.156736 1.006929 1.137643
P_10 1.086716 1.152011 1.196534 1.146898 1.029290 1.194862
P_10 1.054711 1.068391 1.033822 0.975822 0.887676 0.754098
P_10 0.663963 0.604537 0.507272 0.444042 0.352570 0.374555
P_10 0.368585 0.405129 0.436942 0.531475 0.631214 0.698660
P_10 0.784349 0.867955 1.058681 1.078010 1.279892 1.181885
P_10 1.271667 1.288093 1.283868 1.372555 1.243430 1.127839
P_10 1.219703 1.195406 1.147995 1.094829 1.022801 1.090177
P_10 1.119805 1.010559 1.121999 0.958141 1.007508 1.143301
P_10 1.163320 1.109033 1.187830 1.151216 1.122238 1.159751
P_10 1.132996 1.094397 1.019899 0.951389 0.888352 0.801614
P_10 0.748528 0.609541 0.542370 0.454437 0.412082 0.409303
P_10 0.399707 0.433776 0.499316 0.579397 0.665135 0.748663
P_10 0.863532 1.149652 1.175579 1.195168 1.396919 1.455029
P_10 1.445589 1.489549 1.451099 1.420312 1.372224 1.323188
P_10 1.265055 1.221743 1.211849 1.246248 1.064788 1.147848
P_10 1.115626 1.022573 1.040480 1.021600 1.025076 1.142572
P_10 1.100879 1.120689 1.052577 1.074854 1.065317 1.087271
P_10 1.065719 1.003851 1.011704 1.040213 0.848452 0.856284
P_10 0.677827 0.677447 0.607591 0.527537 0.486550 0.485916
P_10 0.423803 0.444796 0.403714 0.438085 0.521094 0.592470
P_10 0.660553 0.710982 0.835804 0.941419 0.999434 1.158694
P_10 1.118179 1.221893 1.080639 1.210589 1.236508 1.236379
P_10 1.177762 1.147180 1.205373 1.063016 1.138522 1.178175
P_10 1.081438 1.153383 1.121956 1.138508 1.196621 1.158833
P_10 1.214719 1.147951 1.063762 1.025652 1.067545 1.034149
P_10 0.940360 0.937416 0.839892 0.814982 0.654087 0.676063
P_10 0.640625 0.584773 0.566947 0.526893 0.441078 0.448245
P_10 0.425551 0.403423 0.408805 0.422690 0.435053 0.484543
P_10 0.564297 0.623476 0.611865 0.739713 0.840269 0.822181
P_10 0.902983 1.015112 1.020879 1.103958 1.089139 1.073196
P_10 1.113250 1.075239 1.052185 1.192902 1.043193 1.025754
P_10 0.960522 0.983670 0.974536 0.943000 0.927634 0.951795
P_10 1.040926 0.986703 1.089022 1.078033 1.116535 1.119824
P_10 0.933685 1.049943 0.908002 0.906430 0.824208 0.687691
P_10 0.644850 0.545612 0.497048 0.406390 0.405684 0.364285
P_10 0.384509 0.390823 0.443470 0.502578 0.520673 0.707904
P_10 0.741517 0.946076 1.011282 1.135945 1.314894 1.268026
P_10 1.313114 1.385739 1.366952 1.380891 1.446497 1.256797
P_10 1.329949 1.162028 1.279576 1.084895 1.040640 1.124580
P_10 0.944136 0.834480 0.936452 0.931512 0.924387 1.049320
P_10 1.136676 1.092865 1.121390 1.148535 1.140718 1.188741
P_10 1.181472 1.047037 0.948101 0.908171 0.830813 0.772595
P_10 0.699842 0.603637 0.547527 0.467749 0.411976 0.440097
P_10 0.387641 0.365978 0.477347 0.498165 0.606986 0.656295
P_10 0.800382 0.827556 0.926974 1.035936 1.093472 1.136607
P_10 1.255468 1.206930 1.324577 1.243715 1.350742 1.312879
P_10 1.285768 1.204083 1.108442 1.032421 1.068147 1.091657
P_10 1.023228 1.019920 1.017080 0.983579 0.960012 1.112991
P_10 1.127782 1.160443 1.202802 1.240822 1.253570 1.260892
P_10 1.138626 1.030453 1.011104 0.958039 0.934356 0.760006
P_10 0.632499 0.571663 0.472653 0.441872 0.396910 0.390628
P_10 0.386111 0.439982 0.490470 0.528952 0.637735 0.732394
P_10 0.833595 0.994337 0.978560 1.017779 1.135296 1.267615
P_10 1.231767 1.416216 1.350993 1.314698 1.286922 1.257740
P_10 1.260543 1.084860 1.094029 1.122771 1.052574 0.963608
P_10 1.136723 0.983851 1.062619 1.020103 1.112037 1.178561
P_10 1.080616 1.134862 1.123544 1.150624 1.264214 1.144269
P_10 1.142266 1.106037 0.914611 0.962834 0.866346 0.803505
P_10 0.722706 0.606103 0.495122 0.447015 0.434805 0.436745
P_10 0.414676 0.430794 0.466329 0.576999 0.640692 0.711822
P_10 0.785156 0.894365 0.979012 1.181514 1.124706 1.223499
P_10 1.318803 1.315134 1.251119 1.336178 1.216519 1.342376
P_10 1.170850 1.054425 1.157316 1.104739 1.015346 0.957293
P_10 0.947980 1.093591 1.008056 1.094708 1.146320 1.134937
P_10 1.077315 1.171209 1.133058 1.295320 1.235617 1.236091
P_10 1.215116 1.172613 0.982890 0.931649 0.793831 0.894124
P_10 0.770453 0.588200 0.584872 0.525243 0.433578 0.390553
P_10 0.423490 0.450625 0.551526 0.619712 0.720839 0.763920
P_10 0.907594 1.072073 1.120551 1.172832 1.406426 1.397187
P_10 1.584173 1.474655 1.392409 1.414695 1.481846 1.389910
P_10 1.387993 1.224241 1.322583 1.238583 1.151595 1.183383
P_10 1.144157 1.058185 1.140289 1.108624 1.012589 1.141569
P_10 1.158730 1.169970 1.212682 1.177526 1.084468 1.113460
P_10 1.100932 1.136583 0.971913 0.935160 0.882540 0.774922
P_10 0.719979 0.709312 0.607856 0.524519 0.493060 0.488977
P_10 0.453895 0.422497 0.490266 0.507867 0.576973 0.546033
P_10 0.670907 0.735608 0.886694 0.929694 0.968211 1.060276
P_10 1.046773 1.275367 1.185594 1.190815 1.340793 1.267919
P_10 1.321682 1.199008 1.142327 1.144038 1.040475 1.253532
P_10 1.130846 1.192103 1.069574 1.190465 1.140118 1.056771
P_10 1.065848 1.023575 1.053503 1.086557 1.060205 1.008829
P_10 0.903764 1.017738 0.956612 0.847947 0.776366 0.758775
P_10 0.730816 0.590134 0.579826 0.531577 0.533341 0.447822
P_10 0.428474 0.427379 0.439490 0.416048 0.438354 0.477258
P_10 0.554354 0.583328 0.663431 0.755729 0.849269 0.940128
P_10 0.994767 0.949101 1.006802 1.027132 1.243785 1.215032
P_10 1.223499 1.274713 1.111368 1.097875 1.039476 0.975889
P_10 1.102663 1.018888 1.071235 1.092264 0.998351 0.994378
P_10 1.042098 1.056498 1.111513 1.096902 1.039191 1.014870
P_10 1.138661 1.014958 0.876105 0.892540 0.838562 0.734385
P_10 0.688701 0.595243 0.523199 0.431975 0.377848 0.384080
P_10 0.380016 0.395632 0.437886 0.522468 0.605657 0.665161
P_10 0.775186 0.864083 0.968879 1.046058 1.260656 1.300661
P_10 1.271678 1.280566 1.346685 1.383031 1.499544 1.370159
P_10 1.305739 1.247456 1.169344 1.130462 1.114034 1.046845
P_10 0.949045 1.024365 1.065196 0.972633 0.981717 1.121327
P_10 1.150005 1.142373 1.239120 1.149985 1.151839 1.202085
P_10 1.175847 1.122850 1.118084 0.941955 0.986799 0.771050
P_10 0.697040 0.605633 0.573603 0.481239 0.431019 0.411028
P_10 0.403521 0.397251 0.460132 0.515937 0.555134 0.711170
P_10 0.827220 0.868297 1.104274 1.013778 1.161293 1.324407
P_10 1.383469 1.295074 1.297750 1.292992 1.282288 1.237408
P_10 1.256851 1.149003 1.085578 1.123201 1.056930 0.975871
P_10 1.079142 0.942498 1.049262 1.021279 1.088285 1.172556
P_10 1.184938 1.249451 1.242878 1.216078 1.143323 1.146086
P_10 1.123890 1.158120 1.080087 0.984675 0.873244 0.748252
P_10 0.643569 0.608286 0.491069 0.468184 0.394296 0.403006
P_10 0.436900 0.455654 0.492709 0.534982 0.656234 0.682112
P_10 0.774875 0.948743 1.036022 1.168252 1.156545 1.156379
P_10 1.445837 1.317351 1.331196 1.320719 1.282365 1.297761
P_10 1.345357 1.310916 1.206876 1.246982 1.198703 1.207952
P_10 1.100575 1.037423 1.038277 1.140105 1.067052 1.084462
P_10 1.066695 1.171836 1.270496 1.123405 1.157396 1.193646
P_10 1.112759 1.105752 1.105347 0.935027 0.915136 0.728541
P_10 0.686454 0.646474 0.528411 0.453156 0.418831 0.380311
P_10 0.398206 0.437251 0.439538 0.544539 0.695058 0.741603
P_10 0.776930 0.956724 1.047956 1.214988 1.220387 1.229465
P_10 1.455909 1.313325 1.246458 1.162469 1.321466 1.225505
P_10 1.259480 1.142134 1.248462 1.116748 1.046758 1.026758
P_10 1.096084 0.929481 1.209363 1.095263 1.124165 1.189813
P_10 1.121049 1.211353 1.230231 1.035284 1.256163 1.351433
P_10 1.064416 1.106124 1.122110 1.036573 0.837982 0.814459
P_10 0.691186 0.620047 0.550658 0.513832 0.451412 0.411514
P_10 0.426019 0.472504 0.560185 0.579216 0.708931 0.796112
P_10 0.950471 1.131665 1.129722 1.226845 1.397600 1.564211
P_10 1.675973 1.519802 1.532569 1.586525 1.590223 1.489502
P_10 1.305384 1.334812 1.231738 1.277227 1.202974 1.174727
P_10 1.051274 1.074094 1.133356 1.088539 1.099023 1.198461
P_10 1.171908 1.198452 1.168763 1.205438 1.170636 1.063624
P_10 1.104885 1.107347 0.958937 1.048489 0.959241 0.878968
P_10 0.770165 0.712696 0.598666 0.534767 0.556395 0.486800
P_10 0.481962 0.465363 0.431906 0.443999 0.544625 0.579086
P_10 0.650513 0.702410 0.775099 0.932704 1.077748 1.178243
P_10 1.228680 1.300160 1.257413 1.284511 1.259768 1.273440
P_10 1.282689 1.324928 1.254847 1.153697 1.287298 1.123854
P_10 1.232438 1.157269 1.181726 1.286737 1.203807 1.125148
P_10 1.169213 1.173249 1.154625 1.040886 1.120174 1.113329
P_10 1.059753 0.986081 0.932580 0.943037 0.828519 0.758161
P_10 0.661965 0.600643 0.590948 0.568729 0.498014 0.474403
P_10 0.438282 0.432918 0.435630 0.467851 0.462140 0.508686
P_10 0.549287 0.593493 0.630939 0.751984 0.886842 0.898765
P_10 0.982297 1.085187 1.189421 1.107608 1.230809 1.085543
P_10 1.247746 1.260125 1.242474 1.089086 1.041889 1.137913
P_10 1.021912 1.076776 1.116019 0.990666 1.070085 1.115256
P_10 1.179171 1.008445 1.054028 1.098249 1.127652 1.170056
P_10 0.991916 0.961040 1.005275 0.891118 0.907417 0.763852
P_10 0.663745 0.580588 0.517349 0.471765 0.381786 0.404110
P_10 0.416308 0.433804 0.507365 0.506549 0.582568 0.730301
P_10 0.745014 0.981124 0.990091 1.102204 1.270827 1.312038
P_10 1.367544 1.490527 1.552919 1.478295 1.443808 1.392482
P_10 1.389079 1.281430 1.181747 1.213031 1.040134 1.118538
P_10 1.029716 0.967674 0.895331 1.006030 1.056060 0.977729
P_10 1.117453 1.147133 1.216122 1.217880 1.197778 1.222812
P_10 1.193292 1.036375 1.074680 0.962909 0.905974 0.792264
P_10 0.727274 0.652221 0.571683 0.555774 0.450013 0.384880
P_10 0.418225 0.457416 0.463952 0.567363 0.632723 0.702337
P_10 0.739246 0.904525 0.989608 1.151357 1.170201 1.301539
P_10 1.413786 1.347999 1.469134 1.424482 1.299014 1.407966
P_10 1.221544 1.234608 1.228013 1.174030 1.140502 1.013066
P_10 0.984888 1.070594 1.035949 1.006710 1.159368 1.143980
P_10 1.184098 1.300495 1.189006 1.328185 1.271967 1.271122
P_10 1.173271 1.133102 1.045508 0.999638 0.924218 0.775717
P_10 0.635010 0.570926 0.528285 0.473253 0.437436 0.413013
P_10 0.389397 0.438660 0.450433 0.604008 0.592845 0.734030
P_10 0.851606 0.983047 1.022850 1.128341 1.123301 1.358050
P_10 1.284649 1.259273 1.428585 1.386991 1.288719 1.378663
P_10 1.411480 1.233039 1.303028 1.178041 1.204514 1.114383
P_10 0.990813 1.039154 1.083745 1.113868 1.059459 1.205300
P_10 1.176144 1.188965 1.277456 1.277442 1.273338 1.146061
P_10 1.240092 1.109344 1.078204 0.932373 0.874858 0.800133
P_10 0.753683 0.653753 0.575361 0.455177 0.441581 0.402002
P_10 0.378390 0.396175 0.466388 0.555517 0.701010 0.704843
P_10 0.813444 0.907336 0.967299 1.079635 1.214534 1.183879
P_10 1.278323 1.403077 1.281169 1.326972 1.391749 1.258960
P_10 1.278186 1.241848 1.265431 1.133340 1.047283 1.078200
P_10 1.178467 1.035158 1.005968 1.092405 1.117856 1.230289
P_10 1.232127 1.144222 1.279839 1.241871 1.306599 1.194556
P_10 1.227832 1.169923 1.104190 1.027707 0.803790 0.830468
P_10 0.776178 0.649751 0.621384 0.503085 0.443628 0.436257
P_10 0.493903 0.493514 0.532014 0.624161 0.689111 0.825747
P_10 0.958972 1.072214 1.299845 1.274358 1.403426 1.364047
P_10 1.483076 1.597398 1.599730 1.634960 1.358930 1.425958
P_10 1.284818 1.417933 1.298083 1.176012 1.304070 1.191591
P_10 1.214286 1.195908 1.230190 1.173469 1.053803 1.070821
P_10 1.278756 1.238224 1.209919 1.292189 1.175417 1.264048
P_10 1.210993 1.067317 1.027277 0.920046 0.950178 0.877792
P_10 0.829205 0.663570 0.720663 0.663560 0.557676 0.484073
P_10 0.443028 0.469291 0.456185 0.534831 0.612270 0.614512
P_10 0.653144 0.795922 0.881552 0.975200 1.088860 1.200554
P_10 1.241978 1.260006 1.349865 1.352530 1.327309 1.299516
P_10 1.271633 1.248326 1.253512 1.247563 1.249449 1.069530
P_10 1.143328 1.090623 1.248739 1.149266 1.225723 1.202672
P_10 1.161234 1.094482 1.118688 1.053216 1.084044 1.079780
P_10 1.044928 0.962282 0.916243 0.859679 0.896200 0.792964
P_10 0.698690 0.675874 0.576249 0.597643 0.477029 0.482650
P_10 0.424030 0.470772 0.453763 0.486025 0.490112 0.468756
P_10 0.528647 0.656762 0.696680 0.796559 0.862534 0.867728
P_10 1.012563 1.003868 1.144883 1.136734 1.330796 1.229569
P_10 1.251479 1.196186 1.192037 1.182952 1.081238 1.087474
P_10 1.058446 1.096819 1.134814 1.083531 1.052806 1.151025
P_10 1.183355 1.119245 1.181901 1.181326 1.065260 1.142541
P_10 1.105615 1.054763 1.038641 0.898142 0.875197 0.693185
P_10 0.667615 0.605147 0.500188 0.481313 0.440871 0.407652
P_10 0.378678 0.417578 0.478839 0.550931 0.642014 0.639657
P_10 0.883902 0.985698 1.059312 1.136448 1.267712 1.320063
P_10 1.410282 1.457070 1.435796 1.432020 1.604269 1.407780
P_10 1.490952 1.293877 1.294486 1.262819 1.079402 1.181773
P_10 0.977199 1.036613 1.006188 1.072674 1.056443 1.164472
P_10 1.184056 1.300581 1.283578 1.201633 1.265372 1.296801
P_10 1.200174 1.203215 1.116076 0.966391 0.898808 0.843165
P_10 0.764845 0.651063 0.568953 0.516620 0.433681 0.453199
P_10 0.421260 0.457739 0.502514 0.578260 0.648088 0.748132
P_10 0.765662 0.949285 1.074917 1.139782 1.189011 1.276938
P_10 1.325419 1.340151 1.492575 1.335374 1.363239 1.290711
P_10 1.283252 1.260966 1.186490 1.136892 1.107189 1.047193
P_10 1.116386 1.098544 1.045537 1.139564 1.091731 1.088105
P_10 1.279732 1.126406 1.276383 1.344610 1.422876 1.268944
P_10 1.247659 1.105658 1.097520 0.980525 0.930079 0.806748
P_10 0.671394 0.652478 0.554439 0.464814 0.395721 0.406629
P_10 0.411858 0.407102 0.537369 0.565319 0.636736 0.782972
P_10 0.864644 0.998998 1.067561 1.211704 1.198354 1.264960
P_10 1.482940 1.364170 1.412488 1.323484 1.438193 1.420172
P_10 1.349752 1.370889 1.143485 1.230969 1.148212 1.237348
P_10 1.157414 1.172535 1.161617 1.044491 1.136629 1.117765
P_10 1.123958 1.163668 1.248861 1.342984 1.201250 1.244084
P_10 1.277343 1.202679 1.144093 1.011209 0.934959 0.787050
P_10 0.764530 0.680433 0.596306 0.494572 0.421324 0.375046
P_10 0.414047 0.431379 0.464016 0.547746 0.622794 0.777748
P_10 0.818181 1.009798 1.133676 1.203234 1.214069 1.337612
P_10 1.346449 1.487489 1.376296 1.386957 1.510037 1.325237
P_10 1.344569 1.250927 1.249529 1.099623 1.141447 1.196670
P_10 1.146788 1.121119 1.146939 1.174145 1.109212 1.193186
P_10 1.168837 1.157758 1.241036 1.276687 1.248456 1.144371
P_10 1.147690 1.178153 1.158478 1.014573 0.922840 0.904702
P_10 0.682832 0.550724 0.566524 0.546831 0.471389 0.454712
P_10 0.460670 0.500708 0.549066 0.635360 0.702397 0.899304
P_10 1.016596 1.158645 1.161391 1.323994 1.422949 1.478781
P_10 1.409761 1.679542 1.592300 1.740803 1.551539 1.558674
P_10 1.308711 1.503401 1.395450 1.202969 1.301138 1.089053
P_10 1.302251 1.142230 1.286090 1.211841 1.175324 1.221594
P_10 1.189953 1.255588 1.204181 1.251481 1.173039 1.160422
P_10 1.033015 1.115430 1.072127 0.956698 0.981256 0.871471
P_10 0.824390 0.764703 0.668618 0.566072 0.536632 0.481345