; Filename: networks/Net1.inp
; WNTR: 0.1.6
; Created: 2019-04-09 13:26:15
[TITLE]
EPANET Example Network 1
A simple example of modeling chlorine decay. Both bulk and
wall reactions are included.

[JUNCTIONS]
;ID                      Elevation       Demand Pattern                 
 10                               710               0                            ;
 11                               710               0                            ;
 12                               700               0                            ;
 13                               695               0                            ;
 21                               700               0                            ;
 22                               695               0                            ;
 23                               690               0                            ;
 31                               700               0                            ;
 32                               710               0                            ;

[RESERVOIRS]
;ID                                   Head                  Pattern
 9                                800                            ;

[TANKS]
;ID                              Elevation           Init Level            Min Level            Max Level             Diameter           Min Volume Volume Curve        
 2                                850             120             100             150            50.5               0                        ;

[PIPES]
;ID                   Node1                Node2                              Length             Diameter            Roughness           Minor Loss               Status
 10                   10                   11                             10530              18             100               0                 Open   ;
 11                   11                   12                              5280              14             100               0                 Open   ;
 12                   12                   13                              5280              10             100               0                 Open   ;
 21                   21                   22                              5280              10             100               0                 Open   ;
 22                   22                   23                              5280              12             100               0                 Open   ;
 31                   31                   32                              5280               6             100               0                 Open   ;
 110                  2                    12                               200              18             100               0                 Open   ;
 111                  11                   21                              5280              10             100               0                 Open   ;
 112                  12                   22                              5280              12             100               0                 Open   ;
 113                  13                   23                              5280               8             100               0                 Open   ;
 121                  21                   31                              5280               8             100               0                 Open   ;
 122                  22                   32                              5280               6             100               0                 Open   ;

[PUMPS]
;ID                   Node1                Node2                Properties          
 9                    9                    10                   HEAD     1                      ;

[VALVES]
;ID                   Node1                Node2                            Diameter Type              Setting           Minor Loss

[TAGS]
;type      name       tag       

[DEMANDS]
;ID        Demand     Pattern   
10         0.0        P_10      
11         150.0      P_11      
12         150.0      P_12      
13         100.0      P_13      
21         150.0      P_21      
22         200.0      P_22      
23         150.0      P_23      
31         100.0      P_31      
32         100.0      P_32      

[STATUS]
;ID        Setting   
[PATTERNS]
;ID        Multipliers

1 1.000000 1.200000 1.400000 1.600000 1.400000 1.200000
1 1.000000 0.800000 0.600000 0.400000 0.600000 0.800000

P_10 0.506598 0.521243 0.383519 0.337024 0.316026 0.337525
P_10 0.316360 0.353507 0.391244 0.471031 0.566584 0.632333
P_10 0.754508 0.835680 0.917125 0.996575 1.158651 1.347029
P_10 1.175566 1.460418 1.328509 1.288127 1.427002 1.332179
P_10 1.322613 1.193677 1.159192 1.103587 0.891088 0.941885
P_10 0.881339 0.893828 0.852827 0.893494 0.865186 0.840647
P_10 0.971965 0.949871 1.056631 1.081177 1.103023 1.081166
P_10 1.072147 0.988142 0.924192 0.909139 0.785375 0.626236
P_10 0.597098 0.475108 0.425265 0.359347 0.337886 0.343167
P_10 0.309962 0.336080 0.398826 0.480295 0.562923 0.648804
P_10 0.744010 0.843529 0.964564 1.038035 1.113830 1.199642
P_10 1.305918 1.310036 1.345053 1.302993 1.305359 1.253020
P_10 1.204891 1.275802 1.058216 1.059667 0.970307 0.912090
P_10 0.929465 0.837962 0.984734 1.000117 0.958186 0.925999
P_10 0.996037 1.006194 1.057296 1.104913 1.181720 1.124387
P_10 1.033555 1.029792 0.995425 0.875310 0.733176 0.700041
P_10 0.532311 0.495460 0.427494 0.400104 0.317414 0.354302
P_10 0.353922 0.380672 0.448633 0.499912 0.559183 0.709706
P_10 0.791739 0.944607 1.010547 1.078770 1.180458 1.180738
P_10 1.201321 1.357404 1.214885 1.219621 1.239748 1.232289
P_10 1.252868 1.122172 1.226423 1.162213 1.033495 1.011781
P_10 1.040150 0.992528 0.936457 1.030404 1.058586 0.953597
P_10 0.950477 1.053140 0.951390 1.139147 1.116759 1.059671
P_10 1.034756 0.998193 0.922108 0.891574 0.883103 0.774503
P_10 0.653768 0.529478 0.439582 0.405530 0.353383 0.345759
P_10 0.322503 0.392897 0.424239 0.507711 0.634503 0.641612
P_10 0.774975 0.959044 1.024950 1.036230 1.129250 1.315684
P_10 1.123676 1.251453 1.251759 1.245441 1.163383 1.189683
P_10 1.157094 1.035533 1.171577 1.059028 0.985708 0.993227
P_10 1.065378 0.989372 1.028766 1.048461 0.990455 1.030235
P_10 0.989117 1.048055 1.079320 1.143623 1.000602 1.147101
P_10 1.039892 0.978052 0.928521 0.907321 0.785367 0.719653
P_10 0.619681 0.543084 0.470129 0.402311 0.388477 0.400614
P_10 0.368201 0.388946 0.466372 0.550088 0.664272 0.724804
P_10 0.842364 1.064332 1.176663 1.258135 1.395973 1.473922
P_10 1.480401 1.464279 1.406780 1.522353 1.341552 1.316162
P_10 1.286708 1.200245 1.224885 1.143002 1.065612 1.033901
P_10 1.061954 1.070759 1.068451 1.011689 1.076721 1.039788
P_10 0.926777 1.035642 1.033538 1.072504 1.060794 1.020395
P_10 0.956512 0.927259 0.853012 0.871898 0.860664 0.692552
P_10 0.708386 0.610188 0.515820 0.464326 0.437194 0.440589
P_10 0.379599 0.393454 0.401061 0.454082 0.495446 0.573060
P_10 0.664845 0.775217 0.813328 0.940094 1.001020 1.111472
P_10 1.150183 1.074907 1.218843 1.271310 1.227856 1.183833
P_10 1.214718 1.221098 1.163708 1.063906 1.172642 1.162896
P_10 1.055243 1.063979 1.118907 1.045291 0.970366 1.182925
P_10 1.027271 1.040899 1.002948 0.872119 0.946976 0.935502
P_10 0.889233 0.761868 0.734362 0.728496 0.651370 0.630309
P_10 0.565364 0.560874 0.462436 0.444169 0.421833 0.417105
P_10 0.375130 0.394440 0.379348 0.417912 0.496748 0.472974
P_10 0.555243 0.589902 0.671084 0.695982 0.761542 0.909626
P_10 0.930011 1.044951 1.021436 1.065053 1.143766 1.223526
P_10 1.121123 1.064945 1.118190 1.071562 0.937751 1.061204
P_10 0.953952 0.943550 0.896227 0.897312 0.899479 0.968990
P_10 0.952783 0.958602 1.041761 1.029074 0.999673 0.976630
P_10 0.851299 0.971649 0.908991 0.757177 0.660753 0.660303
P_10 0.554769 0.446670 0.372118 0.374798 0.311903 0.340845
P_10 0.344779 0.330479 0.390391 0.459022 0.550296 0.653921
P_10 0.789363 0.897229 0.903530 1.107668 1.227720 1.265083
P_10 1.382028 1.416543 1.357524 1.435267 1.361476 1.418163
P_10 1.213248 1.176649 1.150883 1.126754 1.009088 0.976253
P_10 0.913812 0.925862 0.948185 0.919798 0.894879 0.955227
P_10 0.979664 0.956674 0.972231 1.025584 1.108902 1.118214
P_10 1.006381 0.998914 0.920871 0.915933 0.761221 0.703374
P_10 0.589734 0.535269 0.415448 0.392620 0.357211 0.321688
P_10 0.326175 0.370616 0.442204 0.496116 0.574549 0.577539
P_10 0.710134 0.921398 0.973792 1.029431 1.147181 1.221057
P_10 1.210198 1.462429 1.322752 1.291126 1.231552 1.253172
P_10 1.185688 1.195735 1.118133 1.025973 0.989321 0.859914
P_10 0.893111 0.915636 0.936259 1.003509 1.038262 1.034042
P_10 0.978553 1.082365 1.113464 1.050068 1.184628 1.143558
P_10 0.983650 0.996143 0.884412 0.837842 0.781742 0.698603
P_10 0.612110 0.501936 0.444422 0.389583 0.321087 0.338711
P_10 0.364168 0.371852 0.497994 0.513758 0.609764 0.670550
P_10 0.815045 0.931469 0.988562 1.117288 1.174748 1.287163
P_10 1.213853 1.269578 1.376276 1.249379 1.228688 1.283084
P_10 1.192594 1.232863 1.126170 1.123641 1.102172 1.042129
P_10 1.091676 1.070230 0.998642 1.020191 0.905728 1.084248
P_10 1.095642 1.118405 1.046896 1.062605 1.121381 1.031388
P_10 1.084911 0.969548 0.922738 0.931920 0.829682 0.636562
P_10 0.634273 0.557246 0.466378 0.402973 0.373427 0.329836
P_10 0.337272 0.407370 0.460378 0.518003 0.621826 0.667429
P_10 0.807257 0.877864 0.936948 1.148407 1.162811 1.240475
P_10 1.098477 1.229107 1.348943 1.408718 1.226335 1.186624
P_10 1.138791 1.124383 1.062577 0.991207 1.008327 0.904144
P_10 0.939085 0.902277 0.883511 1.000211 0.989978 1.054990
P_10 1.123222 1.114751 1.174619 1.113542 1.026664 1.005007
P_10 1.079221 0.991418 1.027291 0.850699 0.794977 0.758615
P_10 0.618749 0.501086 0.505707 0.425060 0.386555 0.356496
P_10 0.358655 0.428684 0.492207 0.561777 0.634322 0.832840
P_10 0.926649 0.992840 1.155348 1.267588 1.393925 1.309766
P_10 1.598317 1.635908 1.540044 1.415892 1.411721 1.346552
P_10 1.203645 1.333171 1.144017 1.187199 1.096639 1.040307
P_10 1.088624 1.062646 1.058028 1.044256 1.033395 1.043604
P_10 1.019487 1.044846 1.100518 1.020057 0.964321 1.002844
P_10 1.035541 0.928888 0.896318 0.851641 0.736766 0.756026
P_10 0.651378 0.633624 0.500472 0.466753 0.433957 0.372172
P_10 0.390848 0.393083 0.427046 0.441903 0.458732 0.556253
P_10 0.645019 0.711756 0.847632 0.934858 0.976259 1.112261
P_10 1.218814 1.130150 1.207214 1.213231 1.217055 1.233028
P_10 1.131167 1.185373 1.111908 1.038398 1.087087 1.084237
P_10 1.049700 1.043905 1.052912 1.052354 1.028804 1.117399
P_10 0.955785 1.062386 0.994748 0.997877 0.966195 0.892609
P_10 0.853886 0.870911 0.782332 0.710165 0.741425 0.673373
P_10 0.598320 0.515707 0.549346 0.435340 0.408839 0.398538
P_10 0.390171 0.389153 0.398347 0.407682 0.434719 0.482811
P_10 0.476895 0.571339 0.688973 0.754322 0.863939 0.922570
P_10 0.946695 1.044924 1.086572 1.066796 1.039381 1.039396
P_10 1.152815 1.071114 1.144280 1.018463 1.058690 0.933629
P_10 1.040915 1.008191 0.869230 0.914623 0.940532 0.979037
P_10 0.969540 1.039241 0.957067 0.953558 0.985087 1.025568
P_10 0.937925 0.939405 0.870308 0.767170 0.715209 0.595271
P_10 0.597221 0.456707 0.407114 0.381451 0.317707 0.307890
P_10 0.330808 0.356539 0.372112 0.463322 0.607132 0.689579
P_10 0.764382 0.913210 1.037812 1.025513 1.284918 1.305398
P_10 1.352065 1.228174 1.332953 1.400753 1.343795 1.468731
P_10 1.190116 1.267319 1.187993 1.074131 1.056877 0.928744
P_10 0.867592 0.927813 0.873665 0.922970 0.913144 0.950457
P_10 0.964664 1.002642 1.050984 1.125871 1.119666 1.177582
P_10 1.102846 0.966849 0.943946 0.896647 0.826774 0.689107
P_10 0.647019 0.519488 0.443052 0.395543 0.335563 0.311080
P_10 0.372457 0.348696 0.428362 0.499303 0.541985 0.650967
P_10 0.762062 0.841695 0.933681 1.041315 1.147521 1.153180
P_10 1.313072 1.303275 1.403762 1.439959 1.285706 1.233686
P_10 1.307149 1.166213 1.097836 1.024908 1.028004 1.029183
P_10 0.933806 0.877576 0.945048 0.969740 1.036814 0.967471
P_10 0.968673 1.088670 1.076805 1.235063 1.147281 1.098738
P_10 1.019305 0.930899 0.959302 0.861507 0.796906 0.628240
P_10 0.590858 0.517433 0.417250 0.380033 0.374798 0.336224
P_10 0.358747 0.404475 0.415157 0.523310 0.652685 0.702485
P_10 0.844777 0.927398 0.975277 1.079938 1.169150 1.277314
P_10 1.268267 1.243392 1.358303 1.388711 1.320527 1.221863
P_10 1.329857 1.222613 1.141459 1.062228 1.068038 1.113939
P_10 1.089952 0.942477 0.979183 0.910119 0.980897 1.008158
P_10 1.031600 1.091535 1.172797 1.041578 1.100507 1.200174
P_10 1.076418 0.998026 0.961213 0.856224 0.845384 0.763924
P_10 0.615831 0.574432 0.508071 0.376355 0.378825 0.363506
P_10 0.370947 0.423955 0.434302 0.527668 0.598805 0.680212
P_10 0.839979 0.967356 1.037193 1.104810 1.097965 1.294826
P_10 1.179850 1.224142 1.287957 1.341274 1.316722 1.194898
P_10 1.257868 1.134451 1.109887 1.021950 1.054090 1.082158
P_10 1.060591 1.016141 0.986721 1.072749 0.954433 1.039093
P_10 1.018762 1.056841 1.145372 1.098940 1.190882 1.140047
P_10 1.052543 0.946510 0.904760 0.913564 0.809658 0.679332
P_10 0.638038 0.639152 0.486354 0.450662 0.361680 0.410496
P_10 0.410314 0.395017 0.481079 0.541369 0.702019 0.725522
P_10 0.842637 1.007710 1.249533 1.341787 1.399654 1.440028
P_10 1.464065 1.568517 1.516555 1.496243 1.413285 1.446858
P_10 1.490246 1.210515 1.267439 1.238830 1.143671 1.041170
P_10 1.062944 1.102599 1.029613 1.110952 1.086009 1.104280
P_10 1.087105 1.061889 1.152154 1.096722 1.050479 1.034554
P_10 1.040068 0.991330 0.876284 0.825531 0.829345 0.745622
P_10 0.662945 0.661910 0.594968 0.493035 0.474057 0.417505
P_10 0.406225 0.397903 0.393526 0.466095 0.503418 0.613648
P_10 0.657939 0.674396 0.794435 0.998754 1.062700 1.052177
P_10 1.165253 1.157585 1.291620 1.231176 1.250689 1.265003
P_10 1.183718 1.154877 1.047579 1.123660 1.043588 1.104515
P_10 1.056784 1.117506 0.938419 0.996201 1.041943 1.060413
P_10 1.145392 1.000226 1.084754 0.922401 0.987417 0.964857
P_10 0.943894 0.811284 0.812479 0.739783 0.726034 0.671294
P_10 0.564317 0.552802 0.539518 0.473362 0.422039 0.430252
P_10 0.424596 0.376637 0.429175 0.412010 0.456814 0.451758
P_10 0.550239 0.634510 0.628744 0.685627 0.749767 0.887259
P_10 1.046149 1.057936 1.134555 1.119412 1.066758 1.186888
P_10 1.171980 1.181053 1.088672 1.073139 1.014676 0.987365
P_10 0.985387 1.016175 0.928091 1.039109 0.964487 0.941147
P_10 0.952279 0.978178 1.010240 0.969736 0.918969 1.014155
P_10 1.001416 0.876409 0.941837 0.782882 0.687800 0.634923
P_10 0.614024 0.500821 0.444158 0.361363 0.367385 0.317743
P_10 0.338736 0.362517 0.419030 0.511988 0.520136 0.634674
P_10 0.790869 0.899249 0.995628 1.109631 1.174442 1.363075
P_10 1.434737 1.391139 1.406278 1.401242 1.305299 1.399625
P_10 1.299389 1.199830 1.204402 1.045937 1.009386 0.977927
P_10 0.920761 0.943510 0.871006 0.906507 0.893617 0.940346
P_10 0.988806 1.014225 1.051379 1.045076 1.117685 1.128693
P_10 0.984759 1.129309 0.960127 0.922313 0.780405 0.702759
P_10 0.619608 0.557868 0.437692 0.385636 0.363990 0.318942
P_10 0.344093 0.394073 0.430619 0.459299 0.651264 0.696724
P_10 0.816903 0.869716 0.949346 1.128491 1.220043 1.177867
P_10 1.347150 1.339635 1.410024 1.266737 1.424409 1.301110
P_10 1.262334 1.269282 1.147323 1.136848 0.971486 0.954904
P_10 1.000879 0.998977 0.948099 0.972650 1.023110 1.069262
P_10 1.101674 1.184521 1.137801 1.070613 1.212965 1.039580
P_10 1.080737 1.113684 0.946344 0.929905 0.754784 0.701928
P_10 0.625296 0.568169 0.514546 0.392139 0.335663 0.352423
P_10 0.348869 0.413482 0.467545 0.536270 0.659628 0.736888
P_10 0.826453 0.899443 1.096583 1.203249 1.279695 1.270088
P_10 1.308229 1.229317 1.304281 1.259419 1.246210 1.399880
P_10 1.288466 1.285684 1.202210 1.197181 1.021637 1.004919
P_10 1.093675 0.980629 1.012875 1.081242 1.113171 1.107763
P_10 1.077193 1.030924 1.006449 1.120766 1.139816 1.090874
P_10 1.099008 1.014427 1.021922 0.843466 0.836492 0.782273
P_10 0.651896 0.531769 0.483738 0.371710 0.365103 0.359315
P_10 0.371004 0.434640 0.453822 0.542387 0.640364 0.739047
P_10 0.787606 0.919863 1.022453 1.105154 1.149428 1.290123
P_10 1.286927 1.431904 1.416863 1.365324 1.336967 1.237022
P_10 1.268885 1.199822 1.174153 0.994762 1.074577 1.104684
P_10 1.023045 1.005325 1.017506 1.039569 1.020365 1.086445
P_10 1.128524 1.026940 1.019745 1.083372 1.107310 1.147543
P_10 1.027006 1.066967 0.995785 0.874342 0.841507 0.754581
P_10 0.619743 0.635530 0.468683 0.418555 0.413370 0.380757
P_10 0.390979 0.400610 0.488124 0.573222 0.654446 0.804118
P_10 0.961970 1.141419 1.225506 1.188553 1.439507 1.470326
P_10 1.456200 1.535368 1.612763 1.448101 1.348249 1.492509
P_10 1.280034 1.271670 1.241432 1.172111 1.195854 1.196279
P_10 1.103045 1.041370 1.092963 1.002162 1.002092 1.077163
P_10 1.109686 1.089145 1.104579 1.141059 1.069866 0.992252
P_10 1.036849 0.954828 0.950450 0.846477 0.797915 0.627112
P_10 0.678790 0.633402 0.586649 0.492779 0.436843 0.451532
P_10 0.404683 0.429113 0.416320 0.444513 0.533807 0.630047
P_10 0.659078 0.776013 0.876690 0.991796 1.035933 1.083926
P_10 1.217802 1.164108 1.299451 1.208597 1.283483 1.230992
P_10 1.206635 1.267540 1.172330 1.193126 1.194790 1.086893
P_10 1.183496 1.040112 1.089764 1.092203 1.100815 1.140430
P_10 1.084412 1.062544 0.989986 1.034238 1.051552 0.919849
P_10 0.897161 0.835629 0.882599 0.670062 0.768124 0.704040
P_10 0.596897 0.578657 0.503263 0.466263 0.482106 0.442627
P_10 0.394501 0.398341 0.393628 0.448838 0.427358 0.487347
P_10 0.538637 0.632802 0.649850 0.751701 0.806388 0.927175
P_10 0.923414 1.056186 1.156567 1.183361 1.231687 1.142873
P_10 1.205232 1.237073 1.046955 1.053756 1.107480 1.027777
P_10 0.962416 1.010133 0.984411 1.028288 0.965258 1.001714
P_10 1.039039 0.997628 1.101238 0.970569 1.130151 1.101298
P_10 1.009374 0.982938 0.898587 0.868249 0.742907 0.634337
P_10 0.609718 0.509911 0.444012 0.391668 0.340282 0.307293
P_10 0.339838 0.343278 0.432903 0.492250 0.584193 0.688808
P_10 0.806646 0.910250 0.972234 1.161233 1.275568 1.414802
P_10 1.414674 1.432547 1.543324 1.421467 1.450005 1.360164
P_10 1.360489 1.328807 1.184361 1.132358 1.060276 1.037462
P_10 0.916589 1.037959 0.809572 0.910000 0.881995 1.048062
P_10 1.048728 1.056467 1.114336 1.091924 1.177566 1.169451
P_10 1.039512 1.029807 1.004233 0.892788 0.804661 0.740082
P_10 0.636154 0.547964 0.486278 0.394315 0.335946 0.339728
P_10 0.376021 0.403360 0.405858 0.522207 0.647982 0.642489
P_10 0.735835 0.837638 0.996415 1.115844 1.163472 1.329191
P_10 1.350589 1.311074 1.397413 1.356961 1.311527 1.318293
P_10 1.119600 1.305753 1.202592 1.140965 1.047812 0.948308
P_10 0.912857 0.950488 1.082910 1.006198 1.002316 1.057004
P_10 1.062924 1.068786 1.153113 1.149463 1.109870 1.209575
P_10 1.217530 1.061696 1.008429 0.857597 0.855467 0.813285
P_10 0.666503 0.520286 0.442013 0.423355 0.362115 0.334951
P_10 0.365869 0.429744 0.469054 0.562508 0.661545 0.800604
P_10 0.853102 0.917596 1.108706 1.174973 1.171164 1.231806
P_10 1.272926 1.432588 1.444673 1.422724 1.346788 1.277021
P_10 1.415656 1.365222 1.245829 1.082060 1.254145 1.206539
P_10 1.107446 1.136074 1.080910 1.051963 1.095153 1.082048
P_10 1.046138 1.149542 1.100990 1.080607 1.007981 1.093042
P_10 1.052986 1.065744 1.007922 0.967143 0.871094 0.716219
P_10 0.640279 0.581355 0.482305 0.423879 0.381053 0.369641
P_10 0.355326 0.408335 0.490146 0.519500 0.553378 0.744683
P_10 0.946082 1.038558 1.030934 1.132749 1.250997 1.281988
P_10 1.421939 1.386062 1.370502 1.374384 1.308566 1.215218
P_10 1.241465 1.153891 1.087993 1.132120 1.023555 1.087450
P_10 1.105671 0.991589 1.025989 1.026727 1.116478 1.119682
P_10 1.143261 1.178083 1.248473 1.168422 1.173968 1.153429
P_10 1.053670 1.092973 0.999402 0.866439 0.859381 0.740959
P_10 0.636469 0.595355 0.491290 0.406346 0.382410 0.389881
P_10 0.384197 0.410585 0.540786 0.586002 0.715483 0.802650
P_10 0.944993 1.112492 1.214533 1.283372 1.462198 1.586065
P_10 1.698976 1.561121 1.616119 1.565891 1.535360 1.543634
P_10 1.397844 1.344692 1.279921 1.208358 1.160564 1.224559
P_10 1.189220 1.058833 1.080096 1.131344 1.119732 1.119001
P_10 1.176266 1.167503 1.160581 1.141065 1.053109 1.078796
P_10 1.097135 0.987924 0.866229 0.924679 0.851886 0.765037
P_10 0.688640 0.676408 0.580568 0.481123 0.463713 0.459781
P_10 0.419434 0.428567 0.443187 0.494313 0.525014 0.621195
P_10 0.694948 0.789618 0.947805 0.994294 1.091977 1.172392
P_10 1.318503 1.234396 1.286341 1.383288 1.379120 1.261364
P_10 1.285434 1.208026 1.245387 1.093979 1.288282 1.185675
P_10 1.056235 1.145993 1.190507 1.100777 1.076509 1.112730
P_10 1.131716 1.070333 1.095674 1.014715 1.048294 0.807102
P_10 0.969835 0.910211 0.797584 0.808460 0.751699 0.658531
P_10 0.651521 0.592278 0.544333 0.510558 0.471154 0.462977
P_10 0.406155 0.427957 0.406461 0.441855 0.483754 0.512402
P_10 0.590030 0.572335 0.687354 0.759615 0.855227 0.971496
P_10 0.928390 1.183038 1.149846 1.278316 1.251251 1.122070
P_10 1.205318 1.166602 1.248361 1.046053 1.103041 1.031024
P_10 0.979141 0.979739 1.000494 1.031795 0.905667 0.997478
P_10 1.132610 1.042096 1.077596 1.044145 1.055040 1.044017
P_10 0.916407 1.009517 0.928120 0.882505 0.701854 0.672792
P_10 0.543097 0.513677 0.455674 0.368854 0.350504 0.311774
P_10 0.366770 0.388868 0.459317 0.526690 0.607936 0.708510
P_10 0.782253 0.924232 1.119031 1.164891 1.265466 1.375816
P_10 1.309876 1.473211 1.487816 1.610321 1.519923 1.436943
P_10 1.356023 1.293480 1.211843 1.266351 1.062734 1.095303
P_10 1.051918 0.915863 0.921180 1.023862 0.957418 0.987936
P_10 0.951903 1.119415 1.187959 1.152365 1.174918 1.044008
P_10 1.142327 1.153931 1.042398 0.863493 0.895089 0.766516
P_10 0.688825 0.542273 0.514769 0.393717 0.390531 0.358005
P_10 0.348332 0.385372 0.448938 0.533908 0.627918 0.700718
P_10 0.830556 0.893185 0.970958 1.107573 1.154694 1.265189
P_10 1.291661 1.245492 1.355522 1.441268 1.386775 1.285961
P_10 1.390127 1.227252 1.258576 1.114542 1.057544 1.054081
P_10 1.054198 0.997390 0.922838 0.981423 1.008553 1.082075
P_10 1.034130 1.198586 1.277555 1.213877 1.271371 1.154064
P_10 1.240982 1.108877 1.013392 0.985761 0.839781 0.791182
P_10 0.613933 0.548706 0.460537 0.406513 0.389171 0.352887
P_10 0.379794 0.434717 0.475981 0.568166 0.686600 0.776996
P_10 0.888768 0.913707 1.099624 1.220589 1.269318 1.246226
P_10 1.359542 1.384194 1.255590 1.399123 1.296958 1.336689
P_10 1.356322 1.328780 1.325020 1.179196 1.185287 1.079590
P_10 1.173234 1.088204 1.083105 1.104324 1.060283 1.052558
P_10 1.173615 1.160257 1.078251 1.150198 1.116948 1.145310
P_10 1.146274 1.082476 0.983596 0.979091 0.979763 0.757060
P_10 0.657854 0.554041 0.495521 0.415925 0.411454 0.382415
P_10 0.387176 0.412494 0.437277 0.546465 0.662698 0.738551
P_10 0.876238 0.975163 1.160375 1.107689 1.381089 1.363180
P_10 1.405998 1.409863 1.247898 1.314040 1.458567 1.405477
P_10 1.270755 1.201151 1.193359 1.164713 1.182474 1.079566
P_10 0.995822 1.180627 1.019078 1.091621 1.165057 1.181290
P_10 1.117421 1.110841 1.117353 1.175785 1.087045 1.077468
P_10 1.128583 1.100120 1.111290 1.008285 0.884759 0.690375
P_10 0.678621 0.621261 0.518659 0.447535 0.407796 0.394078
P_10 0.344843 0.441765 0.565854 0.615601 0.703452 0.834632
P_10 1.131669 1.078848 1.271740 1.435118 1.488183 1.571877
P_10 1.606317 1.571567 1.618606 1.583548 1.574614 1.548473
P_10 1.595636 1.353130 1.325049 1.226982 1.185283 1.181192
P_10 1.140504 1.100745 1.110745 1.136011 1.088813 1.210024
P_10 1.178459 1.145852 1.169582 1.139939 1.130443 1.118036
P_10 1.116269 1.078683 0.999077 0.881231 0.874877 0.808389
P_10 0.724494 0.617630 0.621596 0.532281 0.474457 0.431212
P_10 0.430791 0.421248 0.403044 0.473482 0.525704 0.649389
P_10 0.668136 0.827179 0.946606 0.986827 1.175335 1.146934
P_10 1.284701 1.332950 1.362735 1.254735 1.365428 1.363729
P_10 1.370393 1.245039 1.189352 1.211521 1.092955 1.178944
P_10 1.076243 1.186505 1.135350 1.141361 1.078393 1.131264
P_10 1.230175 1.084524 1.053051 1.110168 1.026852 0.934411
P_10 0.957458 0.897057 0.805158 0.739566 0.772715 0.641819
P_10 0.678038 0.615610 0.544530 0.514149 0.477498 0.430918
P_10 0.438535 0.480035 0.424112 0.490337 0.487980 0.505547
P_10 0.539613 0.624526 0.761127 0.792322 0.930802 0.932954
P_10 1.067806 1.110493 1.070993 1.176851 1.306685 1.269352
P_10 1.227357 1.160859 1.232597 1.136871 1.073282 1.065872
P_10 0.984932 0.939128 1.058005 1.012050 1.024276 0.989622
P_10 1.093297 1.058634 1.104764 1.153407 1.069557 1.160898
P_10 0.876935 1.059403 0.895680 0.866816 0.797575 0.689180
P_10 0.645603 0.485087 0.436236 0.405866 0.363765 0.381076
P_10 0.364008 0.409186 0.447791 0.500953 0.630528 0.714731
P_10 0.799746 0.871009 1.137458 1.198675 1.309603 1.478896
P_10 1.542340 1.579569 1.607954 1.518915 1.514464 1.484857
P_10 1.291974 1.380244 1.292391 1.223793 1.035419 1.121787
P_10 0.988493 0.951457 0.895324 1.015134 0.954456 1.044305
P_10 0.981389 1.055572 1.194407 1.183176 1.152661 1.128952
P_10 1.219462 1.111708 1.028924 0.902747 0.907090 0.801140
P_10 0.645040 0.593374 0.495303 0.419721 0.383055 0.365391
P_10 0.375442 0.376470 0.457161 0.529187 0.636959 0.719288
P_10 0.866656 0.908322 1.136988 1.135754 1.300887 1.233550
P_10 1.504481 1.444801 1.435932 1.483144 1.558780 1.398463
P_10 1.432145 1.347535 1.309032 1.204471 1.167118 1.073910
P_10 0.996190 1.022429 0.948072 0.992467 1.057720 1.104821
P_10 1.095864 1.122165 1.149445 1.108057 1.250705 1.201192
P_10 1.212067 1.133080 1.132064 0.908088 0.833964 0.727022
P_10 0.634300 0.567106 0.498843 0.414994 0.366627 0.429372
P_10 0.389731 0.417771 0.512747 0.576417 0.681392 0.866890
P_10 0.870064 0.963224 1.168210 1.155573 1.331406 1.338142
P_10 1.431906 1.235158 1.542366 1.484533 1.292669 1.410699
P_10 1.340110 1.357817 1.311039 1.392568 1.085369 1.193681
P_10 1.109157 1.160937 1.129108 1.036848 1.072609 1.219847
P_10 1.150776 1.103424 1.177251 1.260496 1.107221 1.219331
P_10 1.220668 1.142218 1.157488 1.047130 0.860154 0.767807
P_10 0.652317 0.562726 0.516625 0.435947 0.419254 0.387093
P_10 0.366119 0.425706 0.470769 0.609657 0.674340 0.816810
P_10 0.889805 0.989171 1.171924 1.346396 1.401240 1.306544
P_10 1.475854 1.356723 1.366439 1.450573 1.275594 1.281646
P_10 1.319393 1.246668 1.287704 1.215234 1.118862 1.089872
P_10 1.076274 1.027924 1.019525 1.127472 1.044851 1.148570
P_10 1.209833 1.184282 1.190529 1.142260 1.276444 1.117251
P_10 1.149746 1.099445 1.002870 1.083129 0.898844 0.839418
P_10 0.715558 0.597095 0.518104 0.473802 0.406635 0.386291
P_10 0.376809 0.473888 0.551137 0.630189 0.752420 0.929299
P_10 0.883538 1.210646 1.416641 1.576962 1.427441 1.497745
P_10 1.798562 1.701668 1.646593 1.678033 1.515259 1.558663
P_10 1.456675 1.507353 1.255206 1.329100 1.173998 1.216644
P_10 1.078173 1.224670 1.126898 1.093069 1.152703 1.081426
P_10 1.206856 1.157802 1.270895 1.196340 1.255360 1.154895
P_10 1.112231 1.034260 1.072829 0.957387 0.934489 0.817793
P_10 0.717585 0.718035 0.610245 0.535052 0.488820 0.451973
P_10 0.446870 0.446300 0.464454 0.488611 0.472226 0.670966
P_10 0.727371 0.819610 0.986548 1.004915 1.103334 1.287982
P_10 1.124695 1.329211 1.353354 1.508692 1.351555 1.368540
P_10 1.298478 1.382132 1.391946 1.326912 1.123503 1.221100
P_10 1.221100 1.113214 1.099275 1.142553 1.201794 1.188778
P_10 1.156070 1.138024 1.065823 1.196070 1.024030 0.951077
P_10 1.001814 0.885735 0.861157 0.845690 0.736451 0.686830
P_10 0.615840 0.511493 0.523766 0.492474 0.465956 0.474007
P_10 0.452877 0.480324 0.447397 0.458129 0.489170 0.534800
P_10 0.588544 0.667248 0.699306 0.796499 0.845613 1.004504
P_10 1.004175 1.135872 1.120331 1.223890 1.234435 1.357243
P_10 1.281605 1.263535 1.105367 1.136803 1.165900 1.108329
P_10 1.054996 1.030859 1.091023 0.975756 1.049469 1.039044
P_10 1.132707 1.131083 1.097105 1.105864 1.035913 1.135738
P_10 1.105529 1.055927 0.903431 0.898889 0.767672 0.678308
P_10 0.654119 0.545385 0.470168 0.388326 0.353377 0.388178
P_10 0.400573 0.406533 0.429615 0.515176 0.621719 0.681336
P_10 0.925285 0.999558 1.062852 1.138315 1.342132 1.439260
P_10 1.431311 1.664117 1.612169 1.596117 1.422760 1.449476
P_10 1.314572 1.379503 1.266722 1.187908 1.172930 1.041994
P_10 1.121344 1.070492 0.967953 0.989710 1.029135 1.062725
P_10 1.101164 1.097459 1.120728 1.304468 1.255386 1.192141
P_10 1.303402 1.172749 1.109159 1.010282 0.870818 0.763925
P_10 0.676872 0.530722 0.501394 0.401023 0.421997 0.374084
P_10 0.374215 0.418158 0.478445 0.540209 0.613108 0.725079
P_10 0.804387 1.037409 1.073037 1.136838 1.244444 1.308938
P_10 1.345341 1.356047 1.593917 1.473009 1.547874 1.461977
P_10 1.218428 1.326789 1.244447 1.186193 1.075774 1.110881
P_10 1.142761 0.978181 0.967239 0.997746 1.028081 1.202905
P_10 1.105313 1.213304 1.264260 1.168931 1.107261 1.302205
P_10 1.197393 1.165743 1.145770 0.863981 0.894292 0.697567
P_10 0.650986 0.564359 0.483779 0.426588 0.364426 0.411314
P_10 0.394320 0.431536 0.500733 0.573267 0.641127 0.795215
P_10 0.882552 0.959581 1.140485 1.202139 1.225895 1.450804
P_10 1.474877 1.402925 1.421978 1.324763 1.418039 1.446695
P_10 1.402690 1.394379 1.333950 1.328707 1.229673 1.131888
P_10 1.153339 1.156962 1.071011 1.124573 1.099835 1.150410
P_10 1.090852 1.160069 1.215328 1.234357 1.183683 1.264134
P_10 1.137547 1.150286 1.078821 0.992159 0.888519 0.735451
P_10 0.714065 0.606900 0.472629 0.431700 0.379582 0.385849
P_10 0.361257 0.454392 0.457073 0.576152 0.652072 0.794779
P_10 0.869561 1.105183 1.157860 1.194865 1.208348 1.315000
P_10 1.430702 1.448883 1.384188 1.409633 1.452542 1.381434
P_10 1.348777 1.234809 1.199128 1.162693 1.112074 1.115006
P_10 1.148326 1.127617 1.059035 0.999437 1.124199 1.137679
P_10 1.153381 1.135446 1.290275 1.189664 1.237917 1.269783
P_10 1.201833 1.223730 1.155979 0.975670 0.918053 0.778240
P_10 0.688617 0.615254 0.544989 0.487964 0.415500 0.416908
P_10 0.404942 0.437382 0.554007 0.633123 0.744449 0.876901
P_10 1.029269 1.223782 1.280155 1.284413 1.563282 1.574252
P_10 1.823152 1.817078 1.681272 1.593537 1.572260 1.570308
P_10 1.389557 1.383540 1.358859 1.254949 1.278923 1.333064
P_10 1.178148 1.128254 1.095567 1.240552 1.135799 1.230305
P_10 1.264325 1.239547 1.143024 1.225442 1.119502 1.134898
P_10 1.051090 1.116346 1.084687 1.017599 0.957632 0.778789
P_10 0.827301 0.717402 0.657935 0.536269 0.507722 0.463306