; Filename: networks/Net1.inp
; WNTR: 0.1.6
; Created: 2019-04-09 13:25:58
[TITLE]
EPANET Example Network 1
A simple example of modeling chlorine decay. Both bulk and
wall reactions are included.

[JUNCTIONS]
;ID                      Elevation       Demand Pattern                 
 10                               710               0                            ;
 11                               710               0                            ;
 12                               700               0                            ;
 13                               695               0                            ;
 21                               700               0                            ;
 22                               695               0                            ;
 23                               690               0                            ;
 31                               700               0                            ;
 32                               710               0                            ;

[RESERVOIRS]
;ID                                   Head                  Pattern
 9                                800                            ;

[TANKS]
;ID                              Elevation           Init Level            Min Level            Max Level             Diameter           Min Volume Volume Curve        
 2                                850             120             100             150            50.5               0                        ;

[PIPES]
;ID                   Node1                Node2                              Length             Diameter            Roughness           Minor Loss               Status
 10                   10                   11                             10530              18             100               0                 Open   ;
 11                   11                   12                              5280              14             100               0                 Open   ;
 12                   12                   13                              5280              10             100               0                 Open   ;
 21                   21                   22                              5280              10             100               0                 Open   ;
 22                   22                   23                              5280              12             100               0                 Open   ;
 31                   31                   32                              5280               6             100               0                 Open   ;
 110                  2                    12                               200              18             100               0                 Open   ;
 111                  11                   21                              5280              10             100               0                 Open   ;
 112                  12                   22                              5280              12             100               0                 Open   ;
 113                  13                   23                              5280               8             100               0                 Open   ;
 121                  21                   31                              5280               8             100               0                 Open   ;
 122                  22                   32                              5280               6             100               0                 Open   ;

[PUMPS]
;ID                   Node1                Node2                Properties          
 9                    9                    10                   HEAD     1                      ;

[VALVES]
;ID                   Node1                Node2                            Diameter Type              Setting           Minor Loss

[TAGS]
;type      name       tag       

[DEMANDS]
;ID        Demand     Pattern   
10         0.0        P_10      
11         150.0      P_11      
12         150.0      P_12      
13         100.0      P_13      
21         150.0      P_21      
22         200.0      P_22      
23         150.0      P_23      
31         100.0      P_31      
32         100.0      P_32      

[STATUS]
;ID        Setting   
[PATTERNS]
;ID        Multipliers

1 1.000000 1.200000 1.400000 1.600000 1.400000 1.200000
1 1.000000 0.800000 0.600000 0.400000 0.600000 0.800000

P_10 0.621335 0.530098 0.485627 0.452817 0.419862 0.373760
P_10 0.398201 0.436605 0.437030 0.536188 0.575865 0.646194
P_10 0.800091 0.890893 0.995917 1.070040 1.059999 1.126462
P_10 1.352471 1.221385 1.229817 1.265855 1.237716 1.242857
P_10 1.228816 1.144086 1.077740 1.050805 0.976552 0.934999
P_10 0.858494 0.819079 0.869017 0.877781 0.924106 0.868212
P_10 0.944819 1.022727 1.040657 0.990750 1.013541 1.073956
P_10 1.012211 0.919659 0.933391 0.829038 0.798325 0.768418
P_10 0.628463 0.589578 0.526629 0.507783 0.432233 0.407992
P_10 0.417370 0.430796 0.487612 0.580488 0.548786 0.623710
P_10 0.736482 0.887669 0.935610 0.954769 1.058985 1.182803
P_10 1.220520 1.178504 1.218445 1.084706 1.250709 1.171166
P_10 1.242142 1.070379 1.121238 0.953979 0.913104 1.020579
P_10 0.881229 0.872810 0.903508 0.888255 0.952497 0.947078
P_10 1.025828 0.996579 1.088651 1.037452 1.063093 1.001458
P_10 1.052717 0.959537 0.922142 0.834069 0.817331 0.752274
P_10 0.680492 0.576055 0.481438 0.442166 0.439342 0.431949
P_10 0.463190 0.482398 0.499001 0.579544 0.698201 0.799347
P_10 0.794211 0.927052 0.993657 1.013830 1.160912 1.050030
P_10 1.213375 1.276853 1.198142 1.225606 1.163416 1.188917
P_10 1.244157 1.131971 0.977328 0.948551 0.975500 0.824472
P_10 0.970940 0.989682 0.857527 0.948273 0.978233 1.040644
P_10 0.958523 1.112650 0.985158 1.002545 1.117799 1.048527
P_10 1.046108 1.040147 0.848277 0.902627 0.845287 0.652764
P_10 0.591165 0.583511 0.566526 0.408992 0.455397 0.404368
P_10 0.448590 0.475428 0.503625 0.588383 0.682586 0.711538
P_10 0.822825 0.954276 1.018641 0.968871 1.075090 1.191340
P_10 1.212121 1.095705 1.257873 1.086621 1.225618 1.192087
P_10 1.069041 1.004525 1.007663 1.049381 1.004968 0.945299
P_10 0.953952 0.933320 0.949190 0.923875 1.050421 0.921428
P_10 0.978607 1.113512 1.075171 1.039685 1.106589 1.043968
P_10 1.011809 0.893506 0.983240 0.874033 0.856787 0.728706
P_10 0.655881 0.637805 0.554063 0.514617 0.444533 0.463038
P_10 0.438761 0.510214 0.528520 0.625959 0.705158 0.805248
P_10 0.954765 0.949259 1.120750 1.153890 1.205744 1.422621
P_10 1.371131 1.286998 1.417173 1.389730 1.359433 1.308321
P_10 1.171859 1.171725 1.082803 1.133628 0.985487 0.969431
P_10 0.990252 0.975400 1.015989 1.116335 1.016782 1.028867
P_10 1.054226 0.969400 1.082423 1.155665 1.074433 1.052126
P_10 0.988342 0.988636 0.814615 0.844392 0.847010 0.743720
P_10 0.693352 0.673410 0.568682 0.591715 0.498760 0.497620
P_10 0.473668 0.442091 0.493983 0.441912 0.562028 0.614908
P_10 0.707222 0.736154 0.750530 0.866737 0.868946 1.070865
P_10 1.043892 1.230659 1.090417 1.153436 1.211357 1.105727
P_10 1.115615 1.147267 1.059453 1.135380 0.992119 0.965885
P_10 1.003229 1.023503 0.927119 1.031287 0.980334 0.992198
P_10 1.007255 0.910092 0.982053 1.007466 0.894744 0.922542
P_10 0.815902 0.812672 0.798827 0.763636 0.707563 0.696932
P_10 0.604025 0.620434 0.528792 0.567468 0.514014 0.474732
P_10 0.482466 0.460949 0.452583 0.468626 0.459583 0.498850
P_10 0.540527 0.664076 0.723164 0.680962 0.773489 0.887185
P_10 0.915949 1.030537 1.003157 1.089101 1.028490 1.047737
P_10 1.084271 0.980712 0.950351 1.011350 0.915112 1.038121
P_10 0.983310 0.881301 0.872151 0.905304 0.861781 0.913047
P_10 1.014255 0.998914 0.999915 0.966947 0.926527 0.924301
P_10 0.986745 0.869130 0.933846 0.763194 0.752502 0.626300
P_10 0.597882 0.570954 0.514401 0.451778 0.469306 0.410346
P_10 0.418219 0.442896 0.467609 0.512902 0.652315 0.673003
P_10 0.809021 0.836137 1.016561 1.016504 1.061359 1.141525
P_10 1.212643 1.305688 1.312127 1.228851 1.276725 1.133153
P_10 1.151201 1.088509 1.068970 1.015430 0.859396 0.912997
P_10 0.930555 0.918696 0.838139 0.878652 0.943728 0.919751
P_10 0.883473 0.949991 1.025578 0.992960 1.129888 1.048499
P_10 0.962626 0.929384 0.964528 0.831241 0.817029 0.731834
P_10 0.672528 0.639108 0.548277 0.472574 0.457370 0.404555
P_10 0.444673 0.465219 0.473294 0.498430 0.637556 0.722238
P_10 0.790465 0.835039 0.959073 1.075722 1.063234 1.064745
P_10 1.214633 1.228908 1.269459 1.221775 1.285760 1.192540
P_10 1.149721 1.101239 1.068192 1.064029 0.908333 0.866888
P_10 0.993527 0.796037 0.908107 0.908338 0.902013 0.993875
P_10 1.053413 1.032241 1.039867 1.091887 1.180918 1.048835
P_10 1.103363 1.037960 1.035879 0.946600 0.755322 0.776861
P_10 0.557034 0.541565 0.541132 0.485808 0.422053 0.403362
P_10 0.444439 0.472496 0.558069 0.600415 0.636461 0.771926
P_10 0.772981 0.934825 0.925491 1.133154 1.064006 1.264092
P_10 1.160576 1.157488 1.269819 1.322175 1.264282 1.192817
P_10 1.135875 1.131427 1.084600 0.969150 1.024866 0.950676
P_10 1.016740 0.995961 0.927938 0.945802 0.949249 1.074787
P_10 1.000494 0.968220 0.988896 0.987722 1.026563 1.040193
P_10 1.084712 0.992667 0.908817 0.906302 0.851497 0.771361
P_10 0.650026 0.592251 0.454649 0.471619 0.462172 0.459997
P_10 0.417512 0.442004 0.481452 0.581395 0.643967 0.789225
P_10 0.847510 0.884946 0.928210 0.980620 1.238465 1.144157
P_10 1.071221 1.172296 1.288385 1.209357 1.213961 0.995083
P_10 1.081356 1.132308 1.018452 1.055547 1.025250 0.894816
P_10 0.952912 0.941788 0.914685 0.889140 1.020559 1.010892
P_10 1.013077 1.110751 1.164397 1.060272 1.095096 1.072404
P_10 1.083133 0.991511 0.968752 0.934006 0.892838 0.808967
P_10 0.691150 0.515393 0.556808 0.490069 0.478021 0.468242
P_10 0.470756 0.501395 0.557621 0.636842 0.693168 0.818613
P_10 0.940376 1.005569 1.314903 1.160930 1.304281 1.299341
P_10 1.372905 1.290276 1.519470 1.438018 1.348811 1.418573
P_10 1.386796 1.174644 1.091083 1.091014 1.049688 0.978101
P_10 0.971366 0.909581 1.034853 1.016880 1.034291 1.075994
P_10 1.011201 1.033812 1.103253 1.121679 1.046744 1.128929
P_10 1.068833 1.009644 0.946513 0.871464 0.828498 0.800679
P_10 0.659345 0.659749 0.585928 0.576669 0.521771 0.491125
P_10 0.456199 0.447955 0.472601 0.571064 0.598929 0.599137
P_10 0.677119 0.763546 0.821415 0.953348 1.023039 1.055453
P_10 1.136415 1.141178 1.125962 1.275641 1.161865 1.321759
P_10 1.130724 1.154205 1.106947 1.113110 1.136339 1.110751
P_10 1.078528 1.033514 1.008024 1.024729 0.999563 0.942079
P_10 1.120350 1.022938 1.012605 0.985581 0.916290 0.909514
P_10 0.900301 0.878526 0.746356 0.770160 0.713151 0.684145
P_10 0.598909 0.586472 0.532531 0.541082 0.528543 0.503555
P_10 0.500392 0.459357 0.449956 0.468542 0.500658 0.538859
P_10 0.612850 0.656860 0.707221 0.759568 0.812634 0.889101
P_10 1.010503 0.991870 1.104478 1.030894 1.130989 1.123545
P_10 1.046668 1.039807 1.038347 1.008385 0.963703 0.890746
P_10 0.991044 0.963646 0.889948 0.946861 0.954992 1.039366
P_10 0.962057 1.058495 1.027842 0.962753 0.970195 0.982676
P_10 0.940996 1.000937 0.846438 0.780011 0.775572 0.685898
P_10 0.642901 0.609360 0.544577 0.440788 0.424746 0.398082
P_10 0.432473 0.469375 0.466460 0.552703 0.660882 0.703230
P_10 0.838561 0.916725 0.939171 1.112839 1.130820 1.213447
P_10 1.174583 1.324717 1.251707 1.230750 1.416933 1.202259
P_10 1.123975 1.128325 1.147310 0.999589 0.923690 0.999778
P_10 0.873694 0.892265 0.871550 0.926080 0.960434 0.923354
P_10 0.991994 1.002198 1.037136 1.010839 1.100013 1.143736
P_10 1.046378 1.005259 0.953509 0.982787 0.924686 0.748095
P_10 0.685097 0.599740 0.553267 0.493472 0.470608 0.457602
P_10 0.409580 0.509872 0.510913 0.538077 0.663214 0.716055
P_10 0.745731 0.821110 1.018435 1.151691 1.121785 1.190489
P_10 1.202464 1.280268 1.295780 1.312719 1.262417 1.200089
P_10 1.126295 1.035117 1.070269 1.015025 0.993988 0.993404
P_10 0.919697 0.885453 0.875766 0.966499 0.923783 0.986475
P_10 1.013124 0.985273 1.093973 1.106755 1.092543 1.065062
P_10 1.018044 0.954915 0.915891 0.944581 0.822496 0.750532
P_10 0.639545 0.596590 0.470983 0.464630 0.451252 0.456324
P_10 0.421786 0.442496 0.504596 0.580279 0.642595 0.698130
P_10 0.849475 0.923812 0.954269 1.037794 1.154243 1.309498
P_10 1.309376 1.216907 1.332384 1.248158 1.221998 1.269524
P_10 1.220983 1.266447 1.077699 1.072798 1.097234 1.062914
P_10 0.947247 0.942674 1.024118 0.999728 1.001600 0.984661
P_10 1.054855 1.060329 1.036645 1.183988 1.078362 1.050999
P_10 1.043050 0.926864 0.955770 0.903088 0.792838 0.785356
P_10 0.634015 0.615176 0.539162 0.487129 0.477419 0.409587
P_10 0.426511 0.440406 0.523271 0.620961 0.637570 0.748848
P_10 0.806530 0.963332 1.021957 0.978865 1.188123 1.282390
P_10 1.315722 1.205275 1.243346 1.239476 1.243261 1.176061
P_10 1.110883 1.111641 1.160357 0.971967 1.009827 1.010920
P_10 1.081772 0.949148 0.880892 1.001556 1.034874 1.075942
P_10 1.056265 1.102341 1.201399 1.100328 1.149341 1.108612
P_10 1.068249 0.919497 0.986425 0.869740 0.814610 0.746315
P_10 0.648010 0.584855 0.560160 0.509357 0.468240 0.452237
P_10 0.437532 0.533948 0.574088 0.599440 0.667899 0.841831
P_10 0.921488 0.999890 1.185390 1.211117 1.396059 1.382121
P_10 1.448718 1.418661 1.462171 1.414257 1.403636 1.253204
P_10 1.177715 1.266868 1.053854 1.148397 1.055554 1.029167
P_10 1.000232 1.059322 1.030598 1.055646 1.006171 1.116803
P_10 1.077302 1.097880 1.120071 0.975850 1.008729 1.057546
P_10 0.959566 0.995625 0.947775 0.882537 0.885672 0.788377
P_10 0.805740 0.643273 0.619198 0.557909 0.523000 0.476280
P_10 0.472887 0.493017 0.507924 0.563499 0.592946 0.588930
P_10 0.655580 0.777432 0.791619 1.023513 1.100144 1.144888
P_10 1.069395 1.207960 1.137494 1.114332 1.304738 1.126243
P_10 1.118807 1.163435 1.054336 1.030108 1.033412 1.070635
P_10 1.084386 0.995344 1.143560 0.990391 1.088766 1.089691
P_10 1.038771 1.034530 1.033078 1.042579 1.010478 0.914375
P_10 0.978006 0.924542 0.819813 0.777992 0.749281 0.642286
P_10 0.619960 0.636824 0.550230 0.559668 0.528596 0.500430
P_10 0.463210 0.461931 0.472925 0.483771 0.495891 0.552771
P_10 0.657677 0.686154 0.712177 0.818536 0.814299 0.962504
P_10 0.882071 0.928126 1.049523 1.041007 1.052967 1.090715
P_10 1.113280 1.090670 1.077094 1.054681 1.042226 0.962895
P_10 0.925207 0.961627 0.904629 0.933235 0.937974 1.020230
P_10 0.944188 0.948000 0.984794 1.067827 0.991142 1.040832
P_10 0.992990 0.953308 0.937652 0.781542 0.767041 0.728449
P_10 0.628036 0.572225 0.523599 0.500135 0.435175 0.406357
P_10 0.472123 0.458249 0.488166 0.559358 0.647974 0.700108
P_10 0.819738 0.843743 0.999753 1.098082 1.188039 1.187826
P_10 1.278916 1.437627 1.437689 1.291921 1.294899 1.425758
P_10 1.223583 1.138558 1.160480 1.093516 0.880961 1.003768
P_10 0.842302 0.825480 0.937588 0.905329 0.974601 0.947234
P_10 1.054547 1.088397 1.110128 1.030353 1.005352 1.049952
P_10 1.068703 0.965044 1.050091 0.932745 0.841239 0.770343
P_10 0.707405 0.562698 0.505883 0.473890 0.422463 0.465219
P_10 0.423362 0.450725 0.525652 0.618328 0.702109 0.736586
P_10 0.774996 0.921101 1.022416 1.185772 1.175818 1.198148
P_10 1.209372 1.159221 1.255672 1.239803 1.383109 1.338369
P_10 1.287476 1.166654 1.025771 1.040780 1.045559 1.051918
P_10 0.968049 0.937827 0.959432 0.899413 1.029568 1.023386
P_10 1.005428 1.102758 1.005972 1.077658 1.127521 0.970940
P_10 1.111025 1.064767 1.010240 0.869874 0.821870 0.796445
P_10 0.708738 0.610194 0.565213 0.468052 0.434799 0.496588
P_10 0.427532 0.488168 0.535571 0.565342 0.714663 0.755562
P_10 0.888447 0.918614 1.078501 1.042959 1.243887 1.231036
P_10 1.370569 1.326610 1.237464 1.316742 1.288442 1.281589
P_10 1.111518 1.277906 1.050810 1.088190 1.060763 1.091996
P_10 1.031169 1.039820 0.953622 1.058107 1.003140 1.001548
P_10 1.046461 0.983450 1.092940 1.161934 1.056170 1.129170
P_10 1.044288 1.121910 0.972403 0.903148 0.850545 0.735538
P_10 0.629115 0.603017 0.518697 0.489689 0.478064 0.418538
P_10 0.439084 0.495644 0.526455 0.574560 0.700166 0.745351
P_10 0.837270 0.963008 1.028845 1.041336 1.203591 1.246268
P_10 1.390810 1.232149 1.217285 1.254573 1.235272 1.216384
P_10 1.140653 1.132557 1.089648 1.056955 0.956301 0.925855
P_10 0.921487 0.980772 0.951319 1.055339 1.129119 1.054518
P_10 1.116511 1.115679 1.052037 1.308212 1.092512 1.129647
P_10 1.096110 0.975718 0.962579 0.996058 0.807993 0.818882
P_10 0.685801 0.649786 0.596498 0.554972 0.496031 0.448693
P_10 0.503899 0.476439 0.550177 0.634235 0.726022 0.848617
P_10 0.932598 1.051845 1.205424 1.300368 1.337690 1.447565
P_10 1.493533 1.345686 1.411584 1.536646 1.445945 1.332746
P_10 1.337031 1.282449 1.157287 1.150083 1.061458 1.018157
P_10 1.059981 1.040279 1.067137 0.981023 1.081321 1.108117
P_10 1.049596 1.116326 1.139506 1.147527 1.131006 1.054587
P_10 1.025228 1.033622 0.960419 0.893331 0.774845 0.815301
P_10 0.740834 0.704193 0.667982 0.546462 0.547214 0.501681
P_10 0.464960 0.504452 0.499010 0.619897 0.516894 0.586505
P_10 0.729255 0.817304 0.892172 0.896330 0.967340 1.074508
P_10 1.124661 1.294830 1.211986 1.288615 1.130993 1.216811
P_10 1.097632 1.194314 1.164615 1.110853 1.129128 1.025347
P_10 0.988749 1.102773 1.027948 1.039334 1.096231 1.001325
P_10 1.110459 1.075294 0.954864 0.964433 0.973560 1.016761
P_10 0.970003 0.871648 0.879861 0.805181 0.732981 0.664396
P_10 0.707029 0.639188 0.593702 0.508476 0.525062 0.463904
P_10 0.449729 0.482196 0.500999 0.458709 0.511903 0.544897
P_10 0.600398 0.618253 0.717927 0.782499 0.780869 0.898527
P_10 1.002741 1.020357 1.092485 1.063061 1.079960 1.085463
P_10 1.151633 1.119466 1.130479 0.980699 1.034669 1.004293
P_10 0.987070 0.960506 0.943204 0.927432 0.990737 1.000915
P_10 0.962461 0.978201 1.036459 1.117174 1.046739 1.048814
P_10 1.093858 0.938316 0.853926 0.843503 0.773964 0.726063
P_10 0.681177 0.600645 0.582771 0.447919 0.466298 0.440898
P_10 0.438810 0.451045 0.491127 0.579842 0.704253 0.714756
P_10 0.824728 0.891228 1.116628 1.133065 1.131652 1.340681
P_10 1.319743 1.231642 1.343302 1.449118 1.305808 1.285570
P_10 1.278501 1.342142 1.181995 1.106536 0.984022 1.042839
P_10 1.054841 0.944235 0.931878 0.971075 0.885210 1.007751
P_10 1.068518 0.977495 1.093316 1.203651 1.135335 1.143816
P_10 1.087707 1.112164 1.047254 0.918312 0.801663 0.764241
P_10 0.713406 0.578548 0.504145 0.474194 0.459130 0.423449
P_10 0.454936 0.453639 0.560108 0.613286 0.707726 0.732669
P_10 0.772363 0.831444 0.991117 1.024897 1.079650 1.150767
P_10 1.188959 1.300268 1.319077 1.311644 1.250343 1.170182
P_10 1.219488 1.139679 1.116847 0.966811 1.069258 1.026944
P_10 1.004374 0.915005 0.971765 0.979457 0.976439 1.016285
P_10 1.128172 1.117664 1.093270 1.143915 1.195234 1.207433
P_10 1.124996 0.969807 1.006566 0.957724 0.828532 0.762120
P_10 0.643352 0.569229 0.544735 0.473226 0.448328 0.428416
P_10 0.431112 0.486835 0.547466 0.626233 0.745478 0.747952
P_10 0.828853 0.937644 1.060506 1.056449 1.169655 1.248196
P_10 1.275678 1.320346 1.319039 1.333969 1.360105 1.339757
P_10 1.296946 1.073495 1.133975 1.132834 1.092953 1.074709
P_10 1.047219 1.140685 1.111739 0.993767 1.061684 1.091803
P_10 1.051544 1.102755 1.167626 1.080190 1.092950 1.045927
P_10 1.105045 1.144197 0.994080 0.933745 0.833429 0.786512
P_10 0.711562 0.661895 0.593451 0.505247 0.490797 0.445302
P_10 0.437267 0.499988 0.552542 0.635609 0.717458 0.755044
P_10 0.912572 0.953514 1.074226 1.168768 1.215463 1.200690
P_10 1.419784 1.231751 1.385968 1.295244 1.227963 1.195924
P_10 1.227737 1.028079 1.146020 1.067108 1.091214 1.071282
P_10 0.863065 0.926622 1.034939 1.012491 0.976189 1.020837
P_10 1.082097 1.099567 1.230618 1.174058 1.116347 1.091862
P_10 1.132571 1.059690 1.033450 0.964498 0.935007 0.868151
P_10 0.805913 0.665395 0.650828 0.495681 0.497888 0.498447
P_10 0.489285 0.511878 0.564679 0.644272 0.684468 0.831809
P_10 0.976353 1.047539 1.076808 1.122619 1.372711 1.464913
P_10 1.409148 1.383601 1.464419 1.489689 1.285914 1.427145
P_10 1.356588 1.317716 1.072915 1.199030 1.088343 1.180705
P_10 1.121635 1.097293 1.146625 1.099440 1.101857 1.167985
P_10 1.221915 1.201620 1.169654 1.095888 1.004148 1.012422
P_10 1.107375 1.000905 0.999083 0.907008 0.883837 0.812549
P_10 0.780030 0.704052 0.601988 0.563019 0.539285 0.539320
P_10 0.479784 0.510978 0.493428 0.587033 0.654436 0.696399
P_10 0.695684 0.893929 0.916009 0.942172 1.021986 1.169345
P_10 1.273402 1.222316 1.274100 1.278869 1.212528 1.221735
P_10 1.150257 1.236517 1.087520 1.184024 1.026679 1.120782
P_10 1.058297 1.120926 1.051113 1.160758 1.002629 1.119961
P_10 1.107256 1.178389 0.956943 1.153049 1.017326 0.920086
P_10 0.967509 0.893313 0.831105 0.834511 0.735049 0.701313
P_10 0.656559 0.618831 0.550739 0.521496 0.529378 0.522360
P_10 0.451858 0.503788 0.473227 0.457520 0.584719 0.552365
P_10 0.616630 0.750459 0.722874 0.732944 0.892151 0.923934
P_10 1.033697 1.047094 1.068966 1.108075 1.197463 1.116911
P_10 1.078341 1.132806 1.125593 1.160421 0.983372 0.990041
P_10 0.946761 1.054960 1.009912 0.922113 1.027654 1.005189
P_10 1.075668 1.061400 1.163094 1.036419 1.040618 1.039201
P_10 1.074707 0.915864 0.923445 0.851704 0.738702 0.691227
P_10 0.695320 0.625837 0.513102 0.466322 0.427977 0.425992
P_10 0.450816 0.464455 0.458867 0.584760 0.650403 0.712877
P_10 0.862268 0.881222 1.059664 1.121992 1.168457 1.266356
P_10 1.305487 1.403626 1.402351 1.405220 1.415008 1.369762
P_10 1.264428 1.234598 1.205968 1.109883 1.046624 1.012708
P_10 0.945795 0.974130 0.909981 0.916836 1.104104 1.016039
P_10 1.126195 0.990247 1.063823 1.091661 1.180484 1.129722
P_10 1.168928 1.074055 1.035174 1.021417 0.976839 0.804906
P_10 0.751064 0.628857 0.546239 0.478469 0.481271 0.446852
P_10 0.446157 0.512286 0.585378 0.550111 0.710041 0.817383
P_10 0.856943 0.993334 1.021254 0.976857 1.135593 1.107310
P_10 1.397837 1.120370 1.255017 1.347289 1.333150 1.235823
P_10 1.240007 1.209968 1.052608 1.041351 0.979789 1.073740
P_10 0.954876 0.995138 1.016738 0.971784 1.078809 1.047552
P_10 1.186351 1.130111 1.041148 1.139573 1.118326 1.168940
P_10 1.156443 1.020028 0.954568 0.900306 0.904193 0.846224
P_10 0.641730 0.633818 0.558509 0.533544 0.486853 0.456465
P_10 0.450467 0.485958 0.579505 0.607788 0.763147 0.838825
P_10 0.897062 1.036663 1.038816 1.256218 1.260611 1.260669
P_10 1.289938 1.327322 1.345803 1.340668 1.380578 1.288597
P_10 1.348528 1.100747 1.167803 1.152206 1.161877 1.085099
P_10 1.088174 1.053145 1.018667 1.077467 1.107963 1.075997
P_10 1.108191 1.087117 1.051308 1.235031 1.185357 1.273611
P_10 1.126332 1.043801 1.000585 0.996527 0.880763 0.794871
P_10 0.692617 0.590023 0.558786 0.522714 0.467419 0.434345
P_10 0.457855 0.433716 0.577082 0.606373 0.649860 0.810099
P_10 0.970680 0.961494 1.057596 1.076544 1.223896 1.266119
P_10 1.202457 1.313180 1.267037 1.375861 1.242118 1.269300
P_10 1.337314 1.168994 1.120091 1.093014 1.060824 1.062837
P_10 1.041431 1.006930 1.039250 1.053909 1.209720 1.144298
P_10 1.198859 1.032464 1.172127 1.246007 1.130010 1.115518
P_10 1.196412 1.095040 1.101188 0.965625 0.958132 0.816806
P_10 0.707048 0.705146 0.621256 0.553166 0.498613 0.470166
P_10 0.515576 0.515495 0.571249 0.696294 0.791083 0.840932
P_10 1.008098 1.123489 1.300467 1.443023 1.449359 1.377940
P_10 1.427881 1.601412 1.548370 1.510519 1.438209 1.456636
P_10 1.372929 1.155056 1.190717 1.173742 1.112142 1.243177
P_10 1.037285 1.063207 1.087192 1.120040 1.172443 1.109808
P_10 1.220642 1.101349 1.144075 1.114624 1.056089 1.097837
P_10 1.112106 1.154106 1.077579 1.048408 0.915029 0.770358
P_10 0.798883 0.682050 0.669567 0.550708 0.551432 0.592754
P_10 0.525280 0.499299 0.529846 0.565923 0.660803 0.669076
P_10 0.776567 0.826405 0.867184 0.905717 1.130550 1.111024
P_10 1.258687 1.200508 1.206324 1.311423 1.298920 1.398200
P_10 1.325161 1.174696 1.154488 1.278616 1.086694 0.958301
P_10 1.047901 0.976931 1.113744 1.145040 1.105281 1.184265
P_10 1.028809 1.103912 1.064645 1.127809 1.016479 0.972970
P_10 0.965378 0.950709 0.894694 0.854830 0.871418 0.689459
P_10 0.703049 0.677611 0.560277 0.519018 0.535935 0.490725
P_10 0.493385 0.480773 0.501961 0.522155 0.524671 0.547739
P_10 0.602150 0.672421 0.764555 0.877296 0.897607 1.013299
P_10 1.073692 1.133698 1.110819 1.237430 1.230501 1.223941
P_10 1.128119 1.297196 1.198150 1.117389 1.072171 0.985220
P_10 0.889901 1.109426 0.962538 1.043049 0.992704 1.088697
P_10 0.952684 1.046145 1.039015 1.055767 1.035552 1.177581
P_10 1.035333 1.019607 0.925366 0.929461 0.828786 0.715828
P_10 0.646064 0.627180 0.523192 0.504025 0.443070 0.485923
P_10 0.461616 0.436742 0.507086 0.594699 0.674388 0.765966
P_10 0.861896 0.913623 1.064188 1.182198 1.206912 1.349134
P_10 1.302806 1.341681 1.394420 1.433547 1.431922 1.332224
P_10 1.347821 1.208839 1.217708 1.048435 1.082112 1.002654
P_10 1.018106 1.012012 0.979648 0.997767 1.055150 0.936653
P_10 1.094432 1.173593 1.104960 1.198451 1.178846 1.194501
P_10 1.154795 1.138089 0.913790 0.945103 0.819214 0.834598
P_10 0.712994 0.661310 0.573636 0.537234 0.518527 0.469380
P_10 0.439193 0.492093 0.545119 0.646844 0.640692 0.799579
P_10 0.911220 0.944020 0.952199 1.108627 1.247843 1.292575
P_10 1.360018 1.335085 1.327029 1.319426 1.428200 1.180755
P_10 1.221955 1.249576 1.180302 1.116914 1.042937 1.044940
P_10 0.962146 1.005880 0.974310 0.984818 0.976392 1.156401
P_10 1.104688 1.156877 1.158593 1.314366 1.227436 1.216226
P_10 1.218124 1.120958 1.072117 0.991172 0.897750 0.867790
P_10 0.746767 0.648152 0.593300 0.530170 0.498997 0.434277
P_10 0.462642 0.510584 0.610779 0.670547 0.696196 0.748469
P_10 0.883051 1.004419 1.063673 1.221618 1.219826 1.294320
P_10 1.401261 1.352821 1.287048 1.242239 1.232270 1.325539
P_10 1.211475 1.239698 1.307579 1.234568 1.113466 1.234807
P_10 1.085632 1.055446 1.105910 1.155592 0.981579 1.112860
P_10 1.194601 1.184747 1.219628 1.099264 1.162240 1.206334
P_10 1.197803 1.079083 1.007796 1.039167 0.858974 0.901412
P_10 0.695847 0.672673 0.605154 0.586191 0.528143 0.477900
P_10 0.490052 0.549097 0.594455 0.618348 0.816624 0.801432
P_10 0.903682 1.057525 1.207176 1.151963 1.372995 1.378529
P_10 1.324940 1.367284 1.364750 1.242204 1.436948 1.276389
P_10 1.108048 1.143208 1.018913 1.144939 1.083594 1.084781
P_10 0.999627 1.092549 1.058523 1.130446 1.064775 1.094766
P_10 1.207353 1.125759 1.193525 1.181346 1.188784 1.111555
P_10 1.135994 1.106421 1.068664 0.971291 1.021424 0.865891
P_10 0.784691 0.642962 0.555935 0.506614 0.490261 0.499886
P_10 0.509197 0.581369 0.564692 0.724633 0.783982 0.907202
P_10 0.991531 1.115787 1.321911 1.314170 1.429896 1.525640
P_10 1.542524 1.631148 1.641734 1.398145 1.517631 1.522529
P_10 1.385669 1.282578 1.296555 1.118961 1.197310 1.193515
P_10 1.164682 1.193642 1.148316 1.197888 1.076111 1.165013
P_10 1.219858 1.211208 1.241402 1.096369 1.163707 1.245232
P_10 1.137136 1.062296 1.064384 0.945757 0.915213 0.813454
P_10 0.824437 0.725137 0.624423 0.630730 0.542131 0.527850
P_10 0.511193 0.526253 0.554099 0.585903 0.645566 0.685197
P_10 0.799232 0.846308 0.876357 1.016192 1.102462 1.154664
P_10 1.297805 1.250202 1.344355 1.370028 1.337990 1.204014
P_10 1.254709 1.247734 1.314101 1.188296 1.249389 1.158380
P_10 1.111477 1.106175 1.189078 1.080359 1.096377 1.143095
P_10 1.132227 1.215360 1.062072 1.099713 1.081366 0.999536
P_10 0.993412 0.930391 0.905414 0.796012 0.721284 0.788748
P_10 0.663409 0.620929 0.626100 0.588223 0.580723 0.588188
P_10 0.512583 0.521040 0.475459 0.522601 0.568823 0.628035
P_10 0.688788 0.682758 0.818766 0.865027 0.946943 1.048881
P_10 1.083699 1.036076 1.208858 1.185362 1.157268 1.179983
P_10 1.250189 1.112470 1.281466 1.052018 1.113181 1.167487
P_10 1.100437 1.055412 1.004887 1.063709 0.990241 1.103961
P_10 1.039184 1.122699 1.262378 1.138087 1.069005 1.034488
P_10 1.087439 1.034893 0.937190 0.911775 0.860540 0.842508
P_10 0.696976 0.603969 0.533208 0.515679 0.447167 0.471772
P_10 0.482425 0.514154 0.545722 0.559609 0.707258 0.754360
P_10 0.862460 1.003883 1.059529 1.279292 1.362428 1.342225
P_10 1.346004 1.518097 1.417159 1.606788 1.484574 1.354588
P_10 1.255090 1.207387 1.258311 1.235211 1.126181 1.029210
P_10 0.923716 1.014902 1.057285 1.041045 0.997712 0.992176
P_10 1.094820 1.135549 1.207818 1.120377 1.320229 1.192316
P_10 1.253470 1.144158 1.055640 1.078998 0.930568 0.802739
P_10 0.733738 0.720749 0.587887 0.517564 0.564816 0.492084
P_10 0.471871 0.463105 0.574270 0.635408 0.613210 0.873794
P_10 0.829726 1.020510 1.072605 1.050730 1.207242 1.291461
P_10 1.496592 1.452405 1.506663 1.386303 1.249510 1.350049
P_10 1.339683 1.238994 1.188723 1.114402 1.056236 1.120251
P_10 1.060784 0.982870 1.019368 0.998638 1.138936 1.161355
P_10 1.133837 1.066620 1.189806 1.215666 1.190168 1.163999
P_10 1.082310 1.152326 1.065155 1.072730 0.923478 0.863358
P_10 0.703820 0.702983 0.558001 0.520122 0.539445 0.502627
P_10 0.483983 0.526816 0.592401 0.685689 0.740138 0.831552
P_10 0.950825 0.976389 1.103925 1.295248 1.318608 1.213022
P_10 1.443455 1.399837 1.453674 1.357234 1.392806 1.414004
P_10 1.328452 1.257595 1.264932 1.248264 1.145063 1.095894
P_10 1.081804 1.016746 1.021487 1.062079 1.089583 1.203724
P_10 1.110448 1.127888 1.140310 1.272594 1.256507 1.247383
P_10 1.156108 1.101752 1.022416 0.977786 0.959631 0.876797
P_10 0.767511 0.622564 0.589016 0.538518 0.485244 0.454932
P_10 0.484755 0.538022 0.599864 0.651258 0.724473 0.838091
P_10 0.982327 1.119935 1.163496 1.231408 1.368523 1.502677
P_10 1.215139 1.411135 1.284334 1.355646 1.406381 1.403609
P_10 1.174239 1.041448 1.215036 1.166742 1.121324 1.148444
P_10 1.005477 1.145704 1.084659 1.153746 1.143102 1.251338
P_10 1.229851 1.253607 1.169321 1.181046 1.206740 1.094866
P_10 1.065603 1.065498 1.039043 1.019874 0.958626 0.836736
P_10 0.737342 0.720446 0.608940 0.576734 0.532881 0.468273
P_10 0.549710 0.509138 0.633869 0.745155 0.847279 0.862914
P_10 1.028070 1.232480 1.382079 1.367058 1.438078 1.556906
P_10 1.516994 1.508179 1.499272 1.666977 1.511829 1.390998
P_10 1.299718 1.445727 1.302075 1.235923 1.195958 1.239387
P_10 1.141756 1.164996 1.246676 1.173024 1.220289 1.124803
P_10 1.262743 1.264334 1.134140 1.229112 1.132856 1.242141
P_10 1.130041 1.196027 1.048704 0.946861 0.969527 0.861131
P_10 0.748173 0.716103 0.589753 0.568131 0.577057 0.541928