; Filename: networks/Net1.inp
; WNTR: 0.1.6
; Created: 2019-04-09 13:07:59
[TITLE]
EPANET Example Network 1
A simple example of modeling chlorine decay. Both bulk and
wall reactions are included.

[JUNCTIONS]
;ID                      Elevation       Demand Pattern                 
 10                               710               0                            ;
 11                               710               0                            ;
 12                               700               0                            ;
 13                               695               0                            ;
 21                               700               0                            ;
 22                               695               0                            ;
 23                               690               0                            ;
 31                               700               0                            ;
 32                               710               0                            ;

[RESERVOIRS]
;ID                                   Head                  Pattern
 9                                800                            ;

[TANKS]
;ID                              Elevation           Init Level            Min Level            Max Level             Diameter           Min Volume Volume Curve        
 2                                850             120             100             150            50.5               0                        ;

[PIPES]
;ID                   Node1                Node2                              Length             Diameter            Roughness           Minor Loss               Status
 10                   10                   11                             10530              18             100               0                 Open   ;
 11                   11                   12                              5280              14             100               0                 Open   ;
 12                   12                   13                              5280              10             100               0                 Open   ;
 21                   21                   22                              5280              10             100               0                 Open   ;
 22                   22                   23                              5280              12             100               0                 Open   ;
 31                   31                   32                              5280               6             100               0                 Open   ;
 110                  2                    12                               200              18             100               0                 Open   ;
 111                  11                   21                              5280              10             100               0                 Open   ;
 112                  12                   22                              5280              12             100               0                 Open   ;
 113                  13                   23                              5280               8             100               0                 Open   ;
 121                  21                   31                              5280               8             100               0                 Open   ;
 122                  22                   32                              5280               6             100               0                 Open   ;

[PUMPS]
;ID                   Node1                Node2                Properties          
 9                    9                    10                   HEAD     1                      ;

[VALVES]
;ID                   Node1                Node2                            Diameter Type              Setting           Minor Loss

[TAGS]
;type      name       tag       

[DEMANDS]
;ID        Demand     Pattern   
10         0.0        P_10      
11         150.0      P_11      
12         150.0      P_12      
13         100.0      P_13      
21         150.0      P_21      
22         200.0      P_22      
23         150.0      P_23      
31         100.0      P_31      
32         100.0      P_32      

[STATUS]
;ID        Setting   
[PATTERNS]
;ID        Multipliers

1 1.000000 1.200000 1.400000 1.600000 1.400000 1.200000
1 1.000000 0.800000 0.600000 0.400000 0.600000 0.800000

P_10 0.554668 0.523735 0.462975 0.400458 0.370230 0.359386
P_10 0.368208 0.389668 0.418857 0.520228 0.599665 0.699944
P_10 0.658174 0.829283 0.922703 1.111707 1.052141 1.174307
P_10 1.283383 1.299932 1.249564 1.313279 1.225300 1.245528
P_10 1.167436 1.091548 1.103217 0.943991 0.920130 0.943678
P_10 0.900963 0.896757 0.961539 0.844130 0.970116 0.879314
P_10 1.022955 1.054286 1.107398 0.993677 1.026459 0.996604
P_10 0.915626 0.914643 0.861553 0.809775 0.774803 0.753771
P_10 0.656282 0.548637 0.440652 0.455004 0.400798 0.369033
P_10 0.392064 0.384185 0.426007 0.455808 0.598543 0.625403
P_10 0.746673 0.843031 1.031308 1.039789 1.132213 1.207486
P_10 1.157016 1.220470 1.220094 1.242297 1.180365 1.131508
P_10 1.126525 1.096370 1.091708 1.012443 1.048365 0.927543
P_10 0.857208 0.910949 0.914705 0.975349 0.952106 0.992185
P_10 1.126799 1.081221 1.081681 1.058924 1.044349 1.082815
P_10 1.108195 1.012506 0.936913 0.816335 0.848300 0.739326
P_10 0.586684 0.568687 0.474077 0.423806 0.393524 0.367306
P_10 0.362987 0.413580 0.465245 0.591365 0.581915 0.705982
P_10 0.791894 0.930629 1.021171 1.067402 1.121698 1.126000
P_10 1.210758 1.240894 1.314957 1.154467 1.109060 1.168215
P_10 1.106481 1.230887 1.046833 1.160827 1.073244 0.945318
P_10 0.992430 0.968569 0.985648 1.051704 1.017471 1.070433
P_10 0.944780 1.016188 0.965633 1.128439 1.106024 1.007648
P_10 0.981582 0.963136 0.938193 0.835140 0.740500 0.731240
P_10 0.604630 0.583209 0.457049 0.454753 0.374346 0.368638
P_10 0.377538 0.422137 0.445814 0.526362 0.586284 0.721505
P_10 0.780343 0.863926 0.912794 1.072792 1.098947 1.231087
P_10 1.180155 1.196061 1.190527 1.203730 1.074693 1.185689
P_10 1.076425 1.175798 1.054734 1.015056 1.010287 0.981239
P_10 1.047016 0.998350 1.017790 0.928572 0.983481 0.982098
P_10 1.041390 1.036916 1.091013 1.009433 1.036881 1.084772
P_10 0.902690 1.007410 1.012210 0.825559 0.728664 0.777426
P_10 0.618007 0.541201 0.514639 0.467779 0.429282 0.407626
P_10 0.409428 0.462598 0.500600 0.566707 0.639903 0.746757
P_10 0.818472 1.009858 0.943664 1.236459 1.338092 1.440498
P_10 1.388694 1.486429 1.407265 1.424555 1.344813 1.401571
P_10 1.405881 1.287639 1.114339 1.118419 1.087047 0.966657
P_10 1.075075 1.072465 1.022225 0.954115 0.945914 1.084821
P_10 1.045410 0.945129 1.120345 1.111301 0.994299 0.988800
P_10 0.987781 0.907880 0.961525 0.924377 0.825525 0.771122
P_10 0.656003 0.603890 0.541513 0.482993 0.457673 0.420480
P_10 0.417353 0.429164 0.428855 0.493657 0.494776 0.558933
P_10 0.665966 0.755047 0.723443 0.909732 0.987689 1.016815
P_10 0.963069 1.126009 1.246768 1.244931 1.102088 1.172325
P_10 1.028746 1.139064 1.138091 1.086500 1.043298 1.061925
P_10 1.094139 1.090242 1.007454 1.073482 1.125586 1.050847
P_10 0.935842 0.928914 0.942918 0.979015 0.919006 0.948950
P_10 0.838693 0.864141 0.704341 0.737071 0.693182 0.678146
P_10 0.630889 0.562009 0.558073 0.466286 0.496861 0.480516
P_10 0.484346 0.428839 0.410189 0.408543 0.458121 0.522626
P_10 0.464601 0.526265 0.585151 0.740366 0.743404 0.854644
P_10 1.015023 1.092807 1.141652 1.031495 1.146579 0.975355
P_10 1.053166 1.112629 1.081047 0.976424 1.030511 0.990402
P_10 0.912179 0.979287 0.839021 0.877755 0.868464 0.948059
P_10 0.943281 0.982954 0.943949 1.074593 1.027956 0.957111
P_10 0.939146 0.870306 0.854429 0.739662 0.679893 0.609010
P_10 0.598660 0.536808 0.410733 0.420010 0.366066 0.350878
P_10 0.358005 0.378932 0.410471 0.527621 0.573633 0.613150
P_10 0.711009 0.813628 0.922131 1.072599 1.186329 1.085225
P_10 1.263213 1.267390 1.333181 1.363062 1.341617 1.189546
P_10 1.258475 1.118870 1.085589 0.995211 0.984443 0.959084
P_10 0.990469 0.935398 0.928286 0.895274 0.956740 0.980104
P_10 1.019002 1.061510 0.987893 1.014513 1.033175 1.048729
P_10 1.035500 0.947141 0.869905 0.831454 0.803257 0.720741
P_10 0.652156 0.524694 0.455514 0.424859 0.376649 0.387072
P_10 0.372640 0.393260 0.441629 0.495422 0.598707 0.639693
P_10 0.729303 0.816287 0.938153 0.941722 1.077180 1.147261
P_10 1.199702 1.293172 1.242832 1.275131 1.114179 1.190721
P_10 1.118970 1.018847 1.129269 1.119297 0.988997 1.000036
P_10 0.978444 0.869614 0.920859 0.974538 0.948138 1.029017
P_10 1.005458 0.913823 0.982887 1.091996 1.090965 1.102542
P_10 1.103726 0.979193 0.990004 0.748182 0.716705 0.768773
P_10 0.598481 0.534036 0.461578 0.427416 0.392471 0.392386
P_10 0.400634 0.425371 0.441100 0.533113 0.621800 0.766671
P_10 0.837563 0.814022 0.995631 1.107850 1.139629 1.084784
P_10 1.149278 1.209541 1.315455 1.101474 1.348133 1.170186
P_10 1.223673 1.225496 1.165469 1.097944 1.087928 0.998547
P_10 1.122342 1.000041 1.069664 1.005524 1.001127 0.928524
P_10 1.003384 1.005643 1.029568 1.009195 1.128967 0.963865
P_10 0.973784 1.011186 0.940400 0.851462 0.745435 0.659382
P_10 0.625042 0.520705 0.475229 0.470661 0.371358 0.358552
P_10 0.363832 0.459152 0.415251 0.522125 0.649478 0.735752
P_10 0.775640 0.809114 1.075924 1.129232 1.152017 1.195748
P_10 1.188160 1.141652 1.094847 1.212885 1.275435 1.165159
P_10 1.170322 1.081598 1.117923 1.120209 1.044224 0.976708
P_10 1.000052 0.958790 1.050392 0.984509 1.062817 1.057243
P_10 1.049077 1.041554 0.893886 1.115975 1.195883 1.050818
P_10 1.165469 1.113812 0.955314 0.867688 0.842643 0.733008
P_10 0.666688 0.569537 0.526985 0.475135 0.403033 0.424386
P_10 0.403251 0.430628 0.464266 0.600562 0.656448 0.853377
P_10 0.905632 1.006545 1.020399 1.211695 1.264231 1.455455
P_10 1.359313 1.559570 1.476479 1.404127 1.430410 1.294229
P_10 1.200611 1.178844 1.196773 1.189346 1.006890 1.128333
P_10 1.058921 1.057411 1.100858 1.098154 1.076481 1.064188
P_10 0.996525 1.031456 1.125611 1.096034 1.018196 0.970956
P_10 0.967438 0.913852 0.960753 0.863473 0.773764 0.740821
P_10 0.667185 0.593906 0.550627 0.511285 0.492434 0.487731
P_10 0.411866 0.429020 0.444665 0.467039 0.518593 0.586383
P_10 0.710875 0.708874 0.853988 0.871831 1.114866 1.086698
P_10 1.121313 1.137858 1.146442 1.159372 1.128555 1.243763
P_10 1.141976 1.166123 1.159996 1.053574 1.142580 1.140848
P_10 1.077657 1.140222 1.101618 1.121632 1.101687 1.020053
P_10 1.106912 1.069050 1.045706 0.930622 0.985194 0.923054
P_10 0.947175 0.840790 0.785564 0.674723 0.762316 0.666254
P_10 0.659497 0.582206 0.523552 0.505342 0.470873 0.452601
P_10 0.442068 0.390529 0.439895 0.442391 0.459080 0.488551
P_10 0.520069 0.573616 0.615976 0.736731 0.734320 0.841282
P_10 0.967143 0.976853 1.081561 1.106085 0.990464 1.054661
P_10 1.067558 1.135987 1.132785 1.013609 1.103594 0.988540
P_10 0.960968 1.015767 0.981256 0.912646 0.999225 0.958784
P_10 0.936293 0.961082 0.960435 0.939057 0.973977 0.943251
P_10 0.927673 0.886964 0.822862 0.717616 0.737157 0.622703
P_10 0.612428 0.516337 0.477950 0.425420 0.360249 0.350709
P_10 0.367720 0.390467 0.434842 0.522096 0.613904 0.664938
P_10 0.759336 0.913202 0.900501 1.054024 1.121107 1.142261
P_10 1.241239 1.342528 1.346082 1.423496 1.259992 1.293208
P_10 1.205303 1.145874 1.142094 1.078270 1.073357 1.002054
P_10 0.924353 0.897182 1.012729 0.935461 0.993681 0.966521
P_10 0.999163 0.951953 1.056313 1.069762 1.104687 1.004452
P_10 1.011477 1.017416 0.944096 0.958860 0.811802 0.751133
P_10 0.611180 0.563850 0.506523 0.417165 0.413386 0.410827
P_10 0.404412 0.424224 0.458802 0.580094 0.559418 0.641386
P_10 0.813217 0.784244 0.958262 0.896907 1.171998 1.210394
P_10 1.311704 1.374622 1.302031 1.298460 1.335305 1.231869
P_10 1.123387 1.159298 1.135904 1.122201 1.037901 0.993080
P_10 1.040082 0.899135 0.991278 0.964753 1.045048 1.028835
P_10 1.043601 1.192878 1.106372 1.139258 1.047515 1.022038
P_10 1.100407 1.047486 0.916843 0.908334 0.827212 0.753227
P_10 0.630200 0.543971 0.487130 0.420306 0.403519 0.413730
P_10 0.382268 0.440005 0.525401 0.592937 0.586605 0.732198
P_10 0.821954 0.942506 1.069247 1.040754 1.262937 1.205027
P_10 1.301843 1.360339 1.334255 1.321406 1.233773 1.176279
P_10 1.289196 1.296191 1.094086 1.115511 1.092233 1.109721
P_10 0.945180 1.041125 0.969573 1.030637 0.977239 1.026508
P_10 1.071832 1.004728 1.018419 1.061053 1.128433 1.060576
P_10 1.029666 0.966763 1.005201 0.921267 0.848637 0.723908
P_10 0.626402 0.588273 0.487271 0.466568 0.411896 0.402181
P_10 0.425982 0.413933 0.497869 0.579360 0.596190 0.756598
P_10 0.873127 0.940508 0.983537 0.983200 1.103150 1.147650
P_10 1.163850 1.189486 1.206932 1.198053 1.187164 1.191614
P_10 1.088201 1.146268 1.115886 1.060996 1.026439 1.003259
P_10 0.944942 0.971585 0.955778 1.047247 0.944944 1.000946
P_10 1.017246 1.072346 1.177907 1.132802 1.186947 1.019896
P_10 1.106018 1.050753 1.033304 0.920948 0.749057 0.723296
P_10 0.645088 0.561075 0.515073 0.418420 0.420405 0.366652
P_10 0.437258 0.431046 0.510951 0.585250 0.713477 0.785801
P_10 0.908443 0.959492 1.049613 1.176562 1.306379 1.383913
P_10 1.347175 1.416608 1.434889 1.448741 1.381516 1.270021
P_10 1.322970 1.228273 1.171672 1.063788 1.145420 1.143805
P_10 1.118590 1.118071 1.094286 1.110883 1.036778 1.092006
P_10 1.132742 1.074984 1.005498 1.108256 1.024963 0.979691
P_10 1.074235 0.884888 0.950339 0.794373 0.810446 0.779565
P_10 0.697318 0.641947 0.629603 0.547346 0.505658 0.455363
P_10 0.457399 0.442262 0.460757 0.485530 0.577392 0.571458
P_10 0.641923 0.706179 0.846618 0.818991 0.948944 1.047549
P_10 1.126287 1.175117 1.172093 1.266874 1.178143 1.212064
P_10 1.155346 1.284268 1.071835 1.199494 1.143546 0.989956
P_10 1.137129 1.042058 1.109534 1.015591 1.117976 1.111936
P_10 1.040940 1.037795 1.088485 0.965252 0.949405 0.883700
P_10 0.923865 0.836581 0.821036 0.723026 0.727705 0.639449
P_10 0.649441 0.615841 0.525331 0.513082 0.496920 0.452683
P_10 0.453926 0.401406 0.410586 0.434409 0.466108 0.495025
P_10 0.546126 0.589795 0.733529 0.692630 0.811424 0.806669
P_10 0.857749 1.020143 1.071135 1.148796 1.153695 1.229398
P_10 0.988994 1.131559 1.019747 1.030680 0.998823 1.099184
P_10 0.856284 0.962343 1.015911 0.956890 0.936003 0.990837
P_10 0.979353 1.005790 1.015895 0.916595 0.992758 0.965952
P_10 1.045603 0.885091 0.846463 0.847321 0.721602 0.673400
P_10 0.546702 0.490404 0.461649 0.395684 0.391146 0.351864
P_10 0.377211 0.403956 0.417408 0.495266 0.547417 0.741835
P_10 0.719068 0.869688 0.918370 0.945787 1.170855 1.155800
P_10 1.213284 1.229067 1.385512 1.372835 1.331160 1.364127
P_10 1.278691 1.232991 1.163381 1.121497 1.009703 0.925876
P_10 0.878582 0.965134 0.982790 0.861566 0.964585 0.997999
P_10 1.072226 1.110566 1.121339 1.101848 1.085937 1.131989
P_10 1.069602 0.987033 0.924506 0.967677 0.780183 0.709513
P_10 0.651465 0.584783 0.480517 0.442265 0.424659 0.401861
P_10 0.406622 0.435710 0.448291 0.496181 0.598819 0.694438
P_10 0.721998 0.916319 0.975273 1.015772 1.078910 1.188727
P_10 1.290572 1.287407 1.098310 1.294923 1.267314 1.306305
P_10 1.155958 1.270381 1.183005 1.106854 1.126400 1.039515
P_10 0.935214 0.986359 1.002566 0.973709 0.944471 1.040961
P_10 1.068714 1.080175 1.155822 1.027960 1.111125 1.083020
P_10 1.030276 1.032276 1.030962 0.828656 0.798728 0.735434
P_10 0.625594 0.523884 0.443061 0.476021 0.367003 0.362538
P_10 0.409472 0.469056 0.500890 0.498584 0.637938 0.696650
P_10 0.792455 0.871535 1.054418 1.113396 1.190065 1.199867
P_10 1.343649 1.214205 1.259293 1.125228 1.406895 1.292399
P_10 1.248782 1.232954 1.154784 1.107725 1.171225 1.094385
P_10 1.119890 1.110306 0.962132 0.920926 0.987911 1.079956
P_10 0.993916 1.156592 1.083044 1.026139 1.148715 1.053354
P_10 1.092164 1.102331 0.985313 0.931208 0.766096 0.749105
P_10 0.679250 0.625513 0.506469 0.513506 0.433043 0.395647
P_10 0.427791 0.461399 0.462891 0.555963 0.644603 0.736586
P_10 0.795226 0.980017 1.007362 1.014227 1.257311 1.201047
P_10 1.092235 1.395963 1.282945 1.271816 1.169800 1.144515
P_10 1.189233 1.035282 1.244276 1.035554 1.092812 0.966136
P_10 1.035292 1.030475 1.040304 1.092376 1.073527 1.039967
P_10 1.139513 1.180903 1.166358 1.123897 1.121766 1.144946
P_10 1.042898 1.011674 0.923772 0.987351 0.844045 0.707994
P_10 0.699978 0.628777 0.536891 0.452073 0.448496 0.434941
P_10 0.435731 0.481155 0.543619 0.625324 0.769384 0.787737
P_10 0.913684 1.145983 1.247146 1.175818 1.297444 1.308443
P_10 1.345037 1.435579 1.565193 1.362557 1.561768 1.455476
P_10 1.342558 1.344407 1.205126 1.143485 0.982938 1.094680
P_10 1.014502 1.032953 1.146816 1.101484 1.149516 1.122253
P_10 1.023876 1.080348 1.023885 1.088753 1.001253 1.002596
P_10 1.011387 1.041258 0.958383 0.957070 0.818319 0.786772
P_10 0.735683 0.699112 0.604434 0.540613 0.474432 0.511670
P_10 0.483823 0.445820 0.455826 0.485067 0.509843 0.642270
P_10 0.666222 0.739454 0.902345 0.918826 1.032118 0.949693
P_10 1.037332 1.059537 1.281802 1.237076 1.161914 1.441461
P_10 1.194464 1.120419 1.182493 1.141419 1.159173 1.107359
P_10 1.122877 1.104926 1.071422 1.152277 1.013518 1.066135
P_10 1.126123 1.124044 1.015231 1.031058 0.980014 0.865950
P_10 0.968681 0.824530 0.805941 0.744173 0.662929 0.717055
P_10 0.646054 0.628076 0.582484 0.562563 0.480041 0.507714
P_10 0.458021 0.389073 0.461467 0.455770 0.474993 0.517472
P_10 0.524536 0.576566 0.695585 0.759711 0.801020 0.845645
P_10 1.000875 1.001995 1.006088 1.155767 1.158708 1.179508
P_10 1.098618 1.179410 1.225603 1.069824 1.089546 1.076898
P_10 0.905914 0.979874 0.951497 0.974886 1.029837 1.057049
P_10 0.935551 1.051688 0.948425 1.130105 0.992229 1.000885
P_10 0.949812 0.963315 0.796991 0.868025 0.725734 0.746236
P_10 0.585335 0.513176 0.515158 0.430059 0.375469 0.371872
P_10 0.371541 0.464124 0.452446 0.542331 0.621134 0.707389
P_10 0.878303 0.906830 1.013433 1.139233 1.240292 1.240264
P_10 1.379791 1.345622 1.319273 1.476165 1.385227 1.424534
P_10 1.281970 1.244436 1.194890 1.163707 0.976311 1.001657
P_10 0.912162 1.035559 0.939844 0.909827 0.909421 1.057848
P_10 1.050287 1.097808 1.186372 1.082904 1.140704 1.060092
P_10 1.110422 1.077384 0.987780 0.905231 0.764844 0.723242
P_10 0.700167 0.522575 0.523583 0.439870 0.413660 0.401354
P_10 0.383993 0.415440 0.465121 0.586764 0.559446 0.714464
P_10 0.765398 0.912641 0.960396 1.165533 1.096919 1.174228
P_10 1.342991 1.227607 1.204826 1.372768 1.307647 1.144640
P_10 1.214147 1.184781 1.080481 1.143300 1.142117 1.023015
P_10 0.977743 1.033599 1.026310 0.927622 0.970414 1.024173
P_10 1.088738 1.115266 1.127880 1.260119 1.131581 1.139304
P_10 1.069145 1.003858 1.004545 0.963555 0.820444 0.763624
P_10 0.659784 0.625097 0.486663 0.444993 0.403014 0.424373
P_10 0.424280 0.432865 0.469139 0.558577 0.718467 0.731067
P_10 0.884112 0.919980 1.076973 1.035141 1.063344 1.210455
P_10 1.472762 1.299768 1.325460 1.289330 1.368073 1.251859
P_10 1.219321 1.255680 1.115683 1.079457 1.222573 1.201160
P_10 1.113729 1.027100 1.013389 1.055027 1.101845 1.067018
P_10 1.099540 1.213053 1.167601 1.144774 1.052654 1.119383
P_10 1.110532 1.053807 0.991141 0.911379 0.821626 0.742215
P_10 0.664035 0.599230 0.519736 0.449293 0.377895 0.411758
P_10 0.415786 0.476521 0.513611 0.600871 0.705930 0.776994
P_10 0.835644 0.963487 1.035098 1.027004 1.218887 1.306145
P_10 1.350586 1.316136 1.318408 1.334501 1.340639 1.252703
P_10 1.272003 1.274259 1.127045 1.077371 1.171754 1.071101
P_10 0.916963 1.107165 1.107779 1.085758 1.008746 1.064603
P_10 1.106131 1.069420 1.140600 1.123547 1.200134 1.122001
P_10 1.057030 1.009835 0.980087 0.962926 0.836776 0.744169
P_10 0.645583 0.584271 0.531498 0.517660 0.438271 0.414794
P_10 0.438464 0.489267 0.558947 0.594878 0.662109 0.786792
P_10 0.929808 1.130159 1.236623 1.242556 1.375610 1.451238
P_10 1.435088 1.586882 1.458920 1.354100 1.565043 1.528238
P_10 1.287334 1.360501 1.276872 1.165150 1.210616 1.123710
P_10 1.071334 1.063946 1.177929 1.188358 1.103650 1.156042
P_10 1.095678 1.050687 0.938688 1.047516 1.056156 1.072237
P_10 1.014781 1.002091 0.932300 0.921428 0.863170 0.824948
P_10 0.745419 0.627543 0.640689 0.562940 0.493836 0.524936
P_10 0.470890 0.484176 0.514408 0.493177 0.575445 0.610295
P_10 0.699561 0.729956 0.822332 0.903776 0.951371 0.977458
P_10 1.190646 1.230666 1.227708 1.283531 1.270808 1.238352
P_10 1.291272 1.171231 1.210667 1.187592 1.139893 1.113117
P_10 1.244035 1.111388 1.121459 1.142220 1.148400 1.165723
P_10 1.163251 1.108310 1.119805 0.997133 0.996948 1.078476
P_10 0.968147 0.898974 0.832676 0.771261 0.730266 0.746716
P_10 0.697628 0.632021 0.566083 0.567105 0.484513 0.418185
P_10 0.451913 0.444707 0.466842 0.442758 0.487264 0.479386
P_10 0.566875 0.540098 0.642074 0.778986 0.819046 1.022591
P_10 0.991690 1.040641 1.182015 1.105298 1.184618 1.106482
P_10 1.170059 1.212626 1.179981 1.192366 1.043260 1.072178
P_10 1.087912 1.054710 0.967178 0.997893 1.116198 1.026385
P_10 0.923967 0.984497 1.041487 1.015365 1.003859 1.014654
P_10 1.051622 0.971830 0.878535 0.858608 0.723053 0.642390
P_10 0.672172 0.567175 0.498285 0.457643 0.393664 0.408266
P_10 0.374650 0.368092 0.500936 0.451798 0.580492 0.656429
P_10 0.820878 0.913316 1.013305 0.994843 1.223258 1.146637
P_10 1.318393 1.432770 1.401113 1.555398 1.383613 1.398060
P_10 1.461009 1.254971 1.108340 1.122944 1.084259 1.063358
P_10 1.056669 0.992768 0.875242 0.937645 0.988579 0.975813
P_10 1.067728 1.148408 1.201381 1.108105 1.062798 1.097311
P_10 1.108715 0.860302 1.010894 0.973657 0.924561 0.706103
P_10 0.627115 0.574801 0.547879 0.459495 0.438131 0.411753
P_10 0.402660 0.464810 0.466035 0.528162 0.635648 0.721514
P_10 0.864040 0.884828 1.013317 1.122708 1.207203 1.193767
P_10 1.387701 1.305427 1.367941 1.367336 1.298127 1.163448
P_10 1.155166 1.085323 1.220745 1.146502 1.087692 1.074551
P_10 0.995315 0.930168 1.042173 1.061961 0.937390 1.133432
P_10 1.100004 1.113238 1.096939 1.184596 1.263294 1.132943
P_10 1.159219 1.117321 1.037424 0.967466 0.866820 0.756797
P_10 0.707043 0.595683 0.463717 0.443005 0.410968 0.437997
P_10 0.415365 0.463115 0.488012 0.584545 0.650780 0.712381
P_10 0.854570 1.059340 1.054084 1.139241 1.108327 1.274359
P_10 1.406946 1.272472 1.321092 1.377442 1.364219 1.272374
P_10 1.256675 1.196927 1.177414 1.133095 1.083596 1.171290
P_10 1.094747 1.050025 1.089834 1.092684 1.105023 1.068872
P_10 1.059761 0.996742 1.076941 1.156635 1.178164 1.147889
P_10 1.135708 0.988050 0.983060 0.983865 0.895771 0.782653
P_10 0.715448 0.596634 0.513472 0.453222 0.464779 0.428647
P_10 0.430285 0.416053 0.509389 0.588635 0.650465 0.793621
P_10 0.757863 0.919012 1.181888 1.170825 1.144147 1.242069
P_10 1.248549 1.349954 1.271230 1.337184 1.276249 1.266814
P_10 1.334827 1.228786 1.156938 1.119683 1.143684 1.033706
P_10 1.049754 1.106949 1.082153 1.032834 1.042459 1.127387
P_10 1.090181 1.147710 1.140373 1.030399 1.133919 1.154261
P_10 1.137296 1.096477 0.890113 0.959371 0.874794 0.817411
P_10 0.682887 0.656209 0.586834 0.507260 0.452141 0.419161
P_10 0.445493 0.496496 0.546881 0.646580 0.698751 0.857813
P_10 0.965821 1.059725 1.224079 1.270018 1.291288 1.549777
P_10 1.461892 1.526686 1.537003 1.538025 1.498044 1.397986
P_10 1.496571 1.296756 1.273001 1.204612 1.065142 1.128431
P_10 1.213851 1.241085 1.188485 1.132609 1.266653 1.215215
P_10 1.187788 1.173211 1.128657 1.140844 1.164367 1.100363
P_10 0.958876 1.016398 0.998923 0.856609 0.904241 0.846371
P_10 0.754572 0.691355 0.655761 0.543545 0.534386 0.492763
P_10 0.467518 0.466135 0.472394 0.573246 0.576932 0.587598
P_10 0.697230 0.721162 0.859871 1.011922 1.067918 1.003743
P_10 1.217801 1.286807 1.161355 1.221821 1.330507 1.227435
P_10 1.324266 1.282959 1.319125 1.236517 1.234092 1.196570
P_10 1.178197 1.203390 1.120445 1.210047 1.144831 1.047922
P_10 1.004501 1.085366 1.053215 0.997961 0.997281 0.964708
P_10 0.969137 0.923162 0.881931 0.917078 0.698922 0.684816
P_10 0.664925 0.562066 0.504488 0.564995 0.494009 0.474836
P_10 0.499943 0.487931 0.434107 0.504294 0.511466 0.530904
P_10 0.570778 0.648941 0.699284 0.726635 0.913471 0.961134
P_10 1.047802 1.089642 1.128181 1.364886 1.215502 1.148531
P_10 1.256525 1.151253 1.147742 1.145058 1.170529 1.079127
P_10 1.093982 0.982052 1.069700 1.042528 1.050357 1.054376
P_10 1.076764 1.114676 0.984990 1.134129 1.082742 1.133268
P_10 1.021241 0.958580 0.963607 0.848595 0.754317 0.686208
P_10 0.677021 0.558572 0.486954 0.483749 0.366512 0.415718
P_10 0.419336 0.428388 0.458884 0.567999 0.611796 0.698154
P_10 0.834292 0.903111 1.066518 1.226521 1.281334 1.347647
P_10 1.357955 1.538245 1.527924 1.328054 1.437828 1.411676
P_10 1.340474 1.478293 1.311780 1.115651 1.094050 1.009113
P_10 1.111529 1.104342 1.007840 0.985350 1.053017 0.983154
P_10 0.986342 1.060233 1.182764 1.216393 1.140638 1.182909
P_10 1.157045 1.045275 1.062043 0.913417 0.827933 0.864931
P_10 0.674832 0.576252 0.559276 0.485055 0.420080 0.453057
P_10 0.401643 0.455216 0.469486 0.579736 0.656482 0.768563
P_10 0.837857 0.929249 1.092224 1.060442 1.275476 1.362199
P_10 1.366929 1.460970 1.383377 1.406604 1.361275 1.337992
P_10 1.308091 1.273636 1.017094 1.159287 1.106591 1.090416
P_10 1.137908 1.007674 1.104868 1.002397 1.018322 1.135061
P_10 1.139541 1.101529 1.134974 1.228156 1.148665 1.177621
P_10 1.234191 1.077809 1.021328 0.878613 0.898456 0.800177
P_10 0.681423 0.565264 0.450539 0.459088 0.435184 0.395271
P_10 0.464960 0.480005 0.537765 0.541266 0.674168 0.821039
P_10 0.933892 0.930889 1.008146 1.162799 1.295660 1.237266
P_10 1.315390 1.262087 1.365188 1.459529 1.410531 1.360830
P_10 1.350590 1.301786 1.210055 1.252292 1.189626 1.199635
P_10 1.089312 1.119182 1.095251 1.074226 1.031481 1.055837
P_10 1.180350 1.162775 1.093283 1.103493 1.201593 1.103964
P_10 1.097278 1.092270 1.070052 0.865372 0.783573 0.839832
P_10 0.627285 0.609798 0.578826 0.515671 0.430455 0.414600
P_10 0.415157 0.476402 0.486534 0.605122 0.663712 0.753905
P_10 0.942768 1.030906 1.144143 1.141096 1.266329 1.319910
P_10 1.270269 1.452710 1.382496 1.395209 1.360097 1.343061
P_10 1.300745 1.222197 1.198735 1.239660 1.162582 1.128865
P_10 1.019855 1.077794 1.046756 1.034869 1.119324 1.156673
P_10 1.117821 1.262778 1.151340 1.199605 1.125839 1.241141
P_10 1.047503 1.051017 1.050462 0.993733 0.803994 0.758699
P_10 0.753535 0.670638 0.531278 0.490745 0.465379 0.438089
P_10 0.442057 0.453051 0.532051 0.582310 0.694794 0.928683
P_10 1.009873 1.010218 1.322579 1.370487 1.311286 1.566558
P_10 1.483929 1.589005 1.396470 1.514885 1.570799 1.483265
P_10 1.419760 1.294249 1.347724 1.295864 1.179904 1.210462
P_10 1.190452 1.255114 1.157769 1.104842 1.156798 1.195654
P_10 1.262603 1.161940 1.144118 1.187248 1.071895 0.979450
P_10 1.053274 1.072029 0.964408 1.030247 0.901411 0.782855
P_10 0.712982 0.671720 0.669823 0.588590 0.547909 0.499787
P_10 0.493902 0.475106 0.524148 0.560853 0.586983 0.642005
P_10 0.677883 0.800291 0.838828 1.087121 1.085272 1.175920
P_10 1.176661 1.236477 1.321073 1.306950 1.462269 1.254799
P_10 1.303114 1.212601 1.247110 1.250101 1.273008 1.286203
P_10 1.225023 1.280690 1.212088 1.212571 1.180038 1.129199
P_10 1.043826 1.205900 1.022657 1.135558 1.088276 1.027140
P_10 1.006846 0.905251 0.936479 0.940642 0.741507 0.794992
P_10 0.703398 0.642379 0.598475 0.573354 0.509742 0.490819
P_10 0.467552 0.479481 0.467607 0.491358 0.533392 0.531648
P_10 0.624976 0.676411 0.727101 0.807804 0.829398 0.931813
P_10 1.024311 1.097072 1.165634 1.141358 1.271670 1.145469
P_10 1.327918 1.174405 1.238457 1.075343 1.065552 1.029091
P_10 1.102564 1.164993 1.035034 1.126273 1.044477 1.006059
P_10 1.113824 1.073306 1.098587 1.076121 1.080389 1.119381
P_10 1.047923 1.017611 0.984554 0.904386 0.828577 0.780419
P_10 0.639237 0.583648 0.503029 0.459210 0.431906 0.390480
P_10 0.447848 0.414163 0.508568 0.526468 0.653336 0.729993
P_10 0.860993 0.948271 0.979680 1.070495 1.285910 1.238045
P_10 1.300914 1.358202 1.499680 1.483970 1.429836 1.579387
P_10 1.381036 1.318816 1.349182 1.117883 1.172086 0.977482
P_10 0.954587 1.020985 1.003594 1.078477 0.935110 1.008211
P_10 1.093570 1.053644 1.059541 1.135879 1.173585 1.203777
P_10 1.078116 0.992197 0.974018 0.972004 0.856193 0.779358
P_10 0.702898 0.606020 0.558707 0.467244 0.460961 0.444239
P_10 0.398528 0.431399 0.513186 0.576717 0.595316 0.658035
P_10 0.968012 0.859581 1.126527 1.093724 1.243403 1.120526
P_10 1.332718 1.356137 1.297791 1.328198 1.325461 1.296437
P_10 1.317523 1.272419 1.243777 1.097011 1.156648 1.117743
P_10 1.107363 0.966542 1.055437 1.049461 1.092011 1.125078
P_10 1.255718 1.163961 1.124736 1.278012 1.190801 1.241012
P_10 1.128774 1.220868 1.037403 0.989170 0.890472 0.770598
P_10 0.745258 0.648100 0.546000 0.474797 0.430453 0.396784
P_10 0.465444 0.510019 0.505515 0.610901 0.648384 0.772223
P_10 0.899682 0.945858 1.173619 1.166734 1.253294 1.310630
P_10 1.356444 1.472903 1.472958 1.392596 1.398180 1.395440
P_10 1.252288 1.203095 1.285254 1.407684 1.269904 1.231730
P_10 1.167745 1.185218 1.067331 1.250283 1.090307 1.126954
P_10 1.075411 1.232979 1.220495 1.242204 1.089724 1.116616
P_10 1.207964 1.207810 1.059238 1.009468 0.900229 0.891398
P_10 0.704832 0.614455 0.561369 0.495651 0.475073 0.441642
P_10 0.410634 0.481005 0.535306 0.602309 0.657860 0.803493
P_10 0.939656 1.083402 1.054334 1.288082 1.311777 1.400956
P_10 1.348227 1.440381 1.477266 1.403015 1.425833 1.306261
P_10 1.327487 1.247096 1.173993 1.216920 1.097566 1.086311
P_10 1.165281 1.046145 1.133946 1.163582 1.131364 1.179310
P_10 1.138168 1.201388 1.379505 1.180304 1.095509 1.185754
P_10 1.081507 1.174813 1.055958 0.957420 0.809373 0.794049
P_10 0.712254 0.679100 0.528404 0.527589 0.473351 0.508491
P_10 0.439789 0.522274 0.488502 0.668977 0.767032 0.890684
P_10 1.061825 1.145745 1.186797 1.392769 1.325814 1.467073
P_10 1.513883 1.642073 1.574413 1.615889 1.689036 1.508621
P_10 1.377362 1.387776 1.249689 1.319656 1.374060 1.227977
P_10 1.162556 1.224346 1.246141 1.182499 1.151634 1.263747
P_10 1.253954 1.283083 1.194197 1.153580 1.257006 1.120307
P_10 1.117544 0.911471 1.013560 0.955570 0.904061 0.863491
P_10 0.749989 0.798492 0.588499 0.547789 0.569144 0.513890