; Filename: networks/Net1.inp
; WNTR: 0.1.6
; Created: 2019-04-09 13:08:52
[TITLE]
EPANET Example Network 1
A simple example of modeling chlorine decay. Both bulk and
wall reactions are included.

[JUNCTIONS]
;ID                      Elevation       Demand Pattern                 
 10                               710               0                            ;
 11                               710               0                            ;
 12                               700               0                            ;
 13                               695               0                            ;
 21                               700               0                            ;
 22                               695               0                            ;
 23                               690               0                            ;
 31                               700               0                            ;
 32                               710               0                            ;

[RESERVOIRS]
;ID                                   Head                  Pattern
 9                                800                            ;

[TANKS]
;ID                              Elevation           Init Level            Min Level            Max Level             Diameter           Min Volume Volume Curve        
 2                                850             120             100             150            50.5               0                        ;

[PIPES]
;ID                   Node1                Node2                              Length             Diameter            Roughness           Minor Loss               Status
 10                   10                   11                             10530              18             100               0                 Open   ;
 11                   11                   12                              5280              14             100               0                 Open   ;
 12                   12                   13                              5280              10             100               0                 Open   ;
 21                   21                   22                              5280              10             100               0                 Open   ;
 22                   22                   23                              5280              12             100               0                 Open   ;
 31                   31                   32                              5280               6             100               0                 Open   ;
 110                  2                    12                               200              18             100               0                 Open   ;
 111                  11                   21                              5280              10             100               0                 Open   ;
 112                  12                   22                              5280              12             100               0                 Open   ;
 113                  13                   23                              5280               8             100               0                 Open   ;
 121                  21                   31                              5280               8             100               0                 Open   ;
 122                  22                   32                              5280               6             100               0                 Open   ;

[PUMPS]
;ID                   Node1                Node2                Properties          
 9                    9                    10                   HEAD     1                      ;

[VALVES]
;ID                   Node1                Node2                            Diameter Type              Setting           Minor Loss

[TAGS]
;type      name       tag       

[DEMANDS]
;ID        Demand     Pattern   
10         0.0        P_10      
11         150.0      P_11      
12         150.0      P_12      
13         100.0      P_13      
21         150.0      P_21      
22         200.0      P_22      
23         150.0      P_23      
31         100.0      P_31      
32         100.0      P_32      

[STATUS]
;ID        Setting   
[PATTERNS]
;ID        Multipliers

1 1.000000 1.200000 1.400000 1.600000 1.400000 1.200000
1 1.000000 0.800000 0.600000 0.400000 0.600000 0.800000

P_10 0.539709 0.564349 0.511606 0.448011 0.408847 0.403738
P_10 0.414433 0.454253 0.482743 0.539906 0.630725 0.694617
P_10 0.754032 0.839310 0.982388 1.051301 1.144839 1.091869
P_10 1.283567 1.263196 1.120921 1.239087 1.212686 1.364234
P_10 1.180290 1.076156 1.011527 0.972509 0.929564 0.946386
P_10 0.910080 0.867230 0.882474 0.779271 0.970950 0.921162
P_10 0.967219 0.912162 1.027703 1.019928 1.007287 1.053445
P_10 0.987803 0.937849 0.915299 0.838530 0.800087 0.756464
P_10 0.627454 0.586909 0.495169 0.444413 0.452158 0.403249
P_10 0.415886 0.447793 0.529688 0.571499 0.584574 0.665277
P_10 0.769090 0.905288 0.999092 0.949015 1.065578 1.153521
P_10 1.184122 1.282280 1.237976 1.190249 1.189785 1.158720
P_10 1.130082 1.115864 0.982038 0.970851 1.018482 1.042138
P_10 0.958354 0.976876 0.927380 0.938607 1.035470 0.931132
P_10 1.054737 1.116414 0.902859 1.003334 1.012484 1.116266
P_10 0.997391 0.866435 0.994632 0.839516 0.777953 0.726007
P_10 0.624135 0.536696 0.520961 0.483921 0.459935 0.411513
P_10 0.444646 0.488919 0.516743 0.561964 0.651718 0.679045
P_10 0.862458 0.888702 0.996483 1.012738 1.126502 1.010165
P_10 1.166195 1.250281 1.123776 1.115903 1.193834 1.126614
P_10 1.169966 1.053711 1.088794 1.042780 1.035444 1.054767
P_10 1.006154 0.930180 1.014723 0.911210 0.980995 1.004323
P_10 1.058555 1.010191 1.116617 1.127199 1.060445 1.002495
P_10 1.064036 0.917226 0.883206 0.978382 0.792666 0.779570
P_10 0.685627 0.571161 0.555120 0.522100 0.479476 0.453048
P_10 0.407518 0.509137 0.542553 0.584984 0.598924 0.829594
P_10 0.819945 0.917643 0.992425 1.086406 1.061523 1.192997
P_10 1.166960 1.233466 1.223296 1.178020 1.262469 1.102274
P_10 1.111516 1.058979 1.091837 1.042225 0.979508 0.958066
P_10 0.960569 0.949934 0.869977 0.872811 0.967197 0.999116
P_10 1.004238 1.012050 1.069163 1.050355 1.097442 1.027131
P_10 1.058865 1.053912 0.897813 0.815597 0.831735 0.756777
P_10 0.688098 0.592941 0.529543 0.507885 0.471961 0.437244
P_10 0.489025 0.485736 0.541466 0.626288 0.728588 0.812136
P_10 1.010430 1.048137 1.058583 1.043099 1.173604 1.230704
P_10 1.382305 1.272085 1.372540 1.280237 1.309472 1.227258
P_10 1.278480 1.259321 1.110106 1.127852 1.062030 1.061928
P_10 1.055473 1.021790 0.985019 1.100202 1.078208 0.973267
P_10 1.008882 1.121397 0.964852 1.040668 1.103907 1.071089
P_10 0.946967 0.979506 0.857493 0.827302 0.753885 0.774877
P_10 0.671717 0.636101 0.579889 0.533296 0.522535 0.485728
P_10 0.492229 0.421546 0.505119 0.459559 0.499502 0.600931
P_10 0.688301 0.781783 0.788683 0.884912 0.996344 1.049303
P_10 1.087441 1.204224 1.079075 1.127181 1.193750 1.081596
P_10 1.116019 1.116004 1.064080 1.054290 1.013348 1.072976
P_10 0.971668 0.989867 0.976391 1.076526 0.975283 1.040974
P_10 0.944641 0.942652 1.000022 0.970651 0.928873 0.956286
P_10 0.889351 0.906440 0.763305 0.769344 0.710349 0.652860
P_10 0.658015 0.584009 0.566329 0.530172 0.526720 0.539112
P_10 0.461881 0.519089 0.468871 0.463256 0.504373 0.529789
P_10 0.577983 0.626349 0.681423 0.723480 0.758535 0.932918
P_10 0.914857 0.924579 1.076217 1.079141 1.027283 1.047642
P_10 0.982298 1.116972 1.041038 0.967739 1.009003 1.021069
P_10 0.921765 0.868064 0.897560 0.880406 0.962690 0.945276
P_10 0.998221 1.017856 0.995350 0.982580 0.958365 1.038934
P_10 0.887642 0.914151 0.786953 0.834875 0.759508 0.716910
P_10 0.599428 0.577129 0.521193 0.415972 0.469868 0.434715
P_10 0.446291 0.439801 0.496027 0.515325 0.609404 0.716412
P_10 0.753358 0.875632 1.001152 1.110506 1.066212 1.088557
P_10 1.304836 1.194160 1.317917 1.211875 1.256648 1.163415
P_10 1.180345 1.057694 1.025960 1.098853 1.000382 0.938123
P_10 0.901076 0.964028 0.983129 0.948496 0.911016 0.918397
P_10 0.994521 1.059623 1.041782 0.987124 1.024883 1.102352
P_10 1.104736 0.967412 0.856216 0.927297 0.836269 0.725147
P_10 0.602759 0.624641 0.470506 0.474556 0.484746 0.413091
P_10 0.430801 0.467124 0.486652 0.558410 0.598217 0.724403
P_10 0.779572 0.803738 0.923342 1.014360 1.140356 1.177189
P_10 1.204978 1.268229 1.132128 1.206728 1.211333 1.194857
P_10 1.054062 0.995376 1.119643 1.040040 1.070086 0.889390
P_10 0.953365 0.825068 0.926292 0.940121 0.943248 0.989882
P_10 1.046057 1.097794 1.000519 0.982582 1.144975 1.040118
P_10 1.036838 0.984517 1.022018 0.839883 0.827617 0.678941
P_10 0.638903 0.580986 0.510645 0.509222 0.442103 0.431653
P_10 0.411749 0.471276 0.529437 0.560686 0.690289 0.707778
P_10 0.821690 0.868739 0.948203 1.030725 1.076127 1.071103
P_10 1.127845 1.203645 1.262843 1.296523 1.196938 1.198691
P_10 1.212678 1.110285 1.132911 1.167651 1.077095 0.878305
P_10 0.964192 0.925904 0.930966 0.981782 0.991590 1.054453
P_10 1.058874 1.035169 1.028975 1.034936 0.949676 1.033366
P_10 1.111170 0.983239 0.907989 0.913756 0.884393 0.677212
P_10 0.603874 0.626848 0.504397 0.467515 0.443496 0.462397
P_10 0.426369 0.470317 0.521754 0.553167 0.647273 0.740472
P_10 0.876914 0.928869 1.007828 1.018801 1.051256 1.127504
P_10 1.189119 1.268629 1.249626 1.139212 1.283665 0.985802
P_10 1.133740 1.077193 1.041875 0.949697 0.915228 1.020002
P_10 0.882764 0.899274 1.001654 0.957161 1.046287 1.127970
P_10 1.055735 1.064702 1.031309 0.981199 1.053182 1.069875
P_10 1.030545 0.958712 0.988372 0.877865 0.889352 0.806709
P_10 0.637140 0.646228 0.581326 0.542659 0.471979 0.446072
P_10 0.442693 0.499485 0.561112 0.646287 0.770621 0.815406
P_10 0.923317 1.086236 1.029080 1.189439 1.320891 1.335325
P_10 1.414294 1.390385 1.473671 1.471111 1.352370 1.218105
P_10 1.287606 1.258357 1.092836 1.113427 0.994374 1.064171
P_10 1.040538 0.953134 0.980418 0.979213 1.065091 1.023884
P_10 1.009426 1.046304 1.085803 1.090528 0.967279 0.995856
P_10 0.995542 0.942158 0.937875 0.908514 0.805487 0.736140
P_10 0.712054 0.691568 0.580213 0.589121 0.515514 0.479122
P_10 0.471709 0.518182 0.493354 0.502165 0.579452 0.578349
P_10 0.694935 0.778232 0.875632 0.905493 1.019868 1.004286
P_10 1.026619 1.138203 0.992587 1.149396 1.269808 1.069841
P_10 1.159983 1.193906 1.103893 1.081535 0.927152 0.983575
P_10 1.076291 1.053091 0.978471 0.908673 1.021342 0.998979
P_10 0.950788 0.982990 0.942697 0.943390 0.941193 0.964470
P_10 0.838935 0.905204 0.804118 0.725833 0.747620 0.735175
P_10 0.641293 0.551066 0.585123 0.512331 0.531303 0.515880
P_10 0.533392 0.441707 0.446702 0.516778 0.541338 0.567168
P_10 0.586916 0.623630 0.699189 0.813313 0.804502 0.845110
P_10 0.962586 0.971151 1.039909 0.983375 1.172630 1.082460
P_10 1.031132 1.156748 0.961329 1.021518 1.062596 1.008061
P_10 0.902176 0.952236 0.936031 0.900302 0.932208 0.966951
P_10 1.013063 1.012554 0.971619 0.975674 0.952683 1.005212
P_10 0.936802 1.035740 0.787455 0.782695 0.744866 0.724431
P_10 0.632936 0.559619 0.506930 0.469646 0.456383 0.411822
P_10 0.436579 0.432243 0.513656 0.566284 0.632154 0.760883
P_10 0.807807 0.866979 1.005250 1.130434 1.130490 1.090212
P_10 1.127253 1.384466 1.181227 1.318961 1.391835 1.155383
P_10 1.221100 1.107851 1.040065 1.069123 1.002579 0.897502
P_10 0.906611 0.959698 0.907484 0.907751 0.893714 0.930515
P_10 0.981724 1.084731 1.055962 1.107970 1.088841 1.039500
P_10 0.984321 1.024290 0.935449 0.911185 0.853610 0.724895
P_10 0.719020 0.605543 0.506811 0.472027 0.434474 0.440356
P_10 0.417563 0.429756 0.489142 0.505734 0.643153 0.774473
P_10 0.819117 0.841900 0.962034 1.005654 1.076573 1.246756
P_10 1.153220 1.270970 1.221160 1.203426 1.296128 1.251112
P_10 1.152057 1.088704 1.027042 1.031210 0.996935 0.945163
P_10 0.907132 0.976252 0.903367 0.904382 0.959587 0.935526
P_10 1.087868 1.120996 1.116797 1.016872 0.972596 1.034441
P_10 1.008027 1.024236 0.972736 1.001204 0.844019 0.757680
P_10 0.655890 0.583377 0.558746 0.459591 0.448188 0.463923
P_10 0.463763 0.512049 0.549144 0.540493 0.657707 0.765962
P_10 0.867064 0.890895 1.087738 1.054667 0.995810 1.189353
P_10 1.252218 1.185985 1.247080 1.136501 1.258929 1.236167
P_10 1.138548 1.075959 1.179317 1.080002 1.023118 1.024224
P_10 1.064481 0.998248 0.991521 0.900573 0.960878 0.979263
P_10 0.959191 1.146163 1.155328 1.107525 1.047169 1.031177
P_10 1.065689 0.977809 1.048346 1.008962 0.787537 0.744608
P_10 0.643506 0.624250 0.509828 0.502774 0.447592 0.430297
P_10 0.463745 0.525302 0.544240 0.584682 0.649962 0.739608
P_10 0.824840 0.912911 0.961054 1.030602 1.196757 1.252594
P_10 1.299271 1.271958 1.226846 1.149354 1.179438 1.186532
P_10 1.093789 1.104772 1.117709 1.080086 0.984790 0.969569
P_10 0.928223 0.988799 1.020759 0.928287 0.909493 0.965798
P_10 1.095898 0.974466 1.063712 1.069843 1.068953 0.958707
P_10 1.114862 1.038186 0.949369 0.931891 0.892766 0.747366
P_10 0.730465 0.669422 0.640483 0.482090 0.465604 0.465860
P_10 0.498321 0.495673 0.500598 0.709762 0.678909 0.831270
P_10 0.875608 1.002320 1.165350 1.206369 1.302621 1.393988
P_10 1.437581 1.459956 1.460349 1.333525 1.444321 1.200873
P_10 1.224908 1.174431 1.201711 1.063763 0.992550 1.069393
P_10 1.135217 0.961836 1.031552 1.024317 1.037787 1.017671
P_10 1.110375 0.976844 1.104047 1.005651 1.116190 1.038665
P_10 0.919299 1.038870 0.919217 0.870856 0.766971 0.804799
P_10 0.833820 0.642693 0.630606 0.610925 0.522064 0.499300
P_10 0.498874 0.470794 0.442860 0.542924 0.611221 0.656946
P_10 0.674037 0.805137 0.887646 0.897625 0.954034 0.994604
P_10 1.151983 1.169037 1.160594 1.186147 1.150578 1.175322
P_10 1.184535 1.152143 1.167814 1.085568 1.114714 1.041527
P_10 1.084444 1.020247 1.066322 1.063290 1.116691 1.019631
P_10 1.077719 1.147561 1.056532 1.043872 0.959741 0.892774
P_10 0.856294 0.867341 0.858936 0.795632 0.762115 0.659452
P_10 0.650463 0.569038 0.567131 0.588919 0.532259 0.492540
P_10 0.535110 0.461396 0.494416 0.525408 0.541704 0.563451
P_10 0.559663 0.583031 0.696984 0.779465 0.812683 0.961937
P_10 1.018106 0.988878 1.052554 1.090759 1.024732 1.176029
P_10 1.111571 1.125467 1.088023 1.128232 0.958448 1.052849
P_10 0.919135 0.940252 0.942861 1.001548 0.846827 0.980658
P_10 1.055810 0.948366 1.021057 0.990792 1.034638 0.962793
P_10 1.012532 0.922836 0.813337 0.847586 0.804866 0.731960
P_10 0.617817 0.553516 0.521621 0.472233 0.447164 0.412173
P_10 0.441593 0.473556 0.490330 0.515602 0.618668 0.669362
P_10 0.824379 0.928528 0.975545 1.065486 1.097561 1.285950
P_10 1.338799 1.388924 1.410141 1.400376 1.376198 1.226743
P_10 1.338401 1.322546 1.151157 1.121362 1.006256 0.975615
P_10 0.965601 0.935561 0.969129 1.001565 0.951128 0.955913
P_10 1.007140 0.914520 1.085093 1.178297 1.007805 1.033034
P_10 1.096151 1.019006 0.953065 0.861824 0.874836 0.724674
P_10 0.721121 0.601145 0.544839 0.495620 0.463612 0.402130
P_10 0.458067 0.451037 0.522994 0.575435 0.674884 0.661611
P_10 0.805013 0.895152 0.957906 0.980144 1.148029 1.310923
P_10 1.228154 1.229871 1.256274 1.361250 1.371015 1.199479
P_10 1.136506 1.113386 1.119757 1.093001 1.024543 0.917659
P_10 0.952789 0.970546 0.946848 0.966144 1.045129 1.077467
P_10 1.087996 1.064431 1.108977 1.153201 1.133062 1.122889
P_10 1.165256 1.010279 1.038568 0.889800 0.805140 0.793995
P_10 0.635681 0.669786 0.517228 0.473290 0.500873 0.463490
P_10 0.473819 0.498140 0.534348 0.562692 0.717837 0.777415
P_10 0.849287 0.830150 0.975070 1.063795 1.138135 1.111498
P_10 1.293428 1.211895 1.285421 1.296502 1.132726 1.301877
P_10 1.160815 1.097783 1.115164 1.043038 1.126585 1.051798
P_10 1.071251 0.982225 0.951185 0.932712 0.964900 1.003215
P_10 1.032506 1.133840 1.107093 1.151801 1.129384 1.142892
P_10 1.030457 0.998534 1.000822 0.989121 0.858222 0.771737
P_10 0.645959 0.640861 0.577860 0.501683 0.465672 0.474964
P_10 0.475490 0.524137 0.543835 0.650189 0.690177 0.756454
P_10 0.857282 0.930242 1.063435 1.092391 1.205013 1.111435
P_10 1.314474 1.129169 1.281001 1.214188 1.216674 1.280270
P_10 1.242385 1.117091 1.069763 1.037912 0.989074 0.966936
P_10 1.039095 1.004815 0.971128 1.083855 0.942155 0.972743
P_10 1.020346 1.037668 1.075316 1.110159 1.040838 1.111680
P_10 1.007716 0.987935 0.972810 1.023910 0.834582 0.825545
P_10 0.683882 0.659914 0.594576 0.522727 0.461238 0.476548
P_10 0.525575 0.514544 0.566980 0.597566 0.716565 0.835987
P_10 0.983491 0.998823 1.245557 1.247555 1.270420 1.358938
P_10 1.461886 1.307367 1.507773 1.529376 1.387692 1.320001
P_10 1.275096 1.162262 1.218311 1.104384 1.106672 1.071971
P_10 1.107663 1.042786 1.144365 1.029053 1.030206 1.180995
P_10 1.123336 1.014612 1.139147 1.169544 0.979749 1.018615
P_10 1.050355 0.964947 0.930165 0.917212 0.754549 0.709918
P_10 0.762125 0.695859 0.656411 0.624213 0.548495 0.492748
P_10 0.513087 0.539111 0.528315 0.554348 0.600160 0.623719
P_10 0.759102 0.781913 0.838739 0.956035 1.006040 1.019390
P_10 1.190665 1.126015 1.208446 1.205474 1.201320 1.217251
P_10 1.174985 1.179725 1.280850 1.145111 1.134528 1.028982
P_10 1.062199 1.094971 1.122949 1.109333 1.075024 1.031193
P_10 1.192591 0.978756 1.047163 1.068184 0.985298 1.010801
P_10 0.851749 0.972121 0.842565 0.764411 0.804257 0.729840
P_10 0.704106 0.604322 0.617878 0.608414 0.530983 0.495271
P_10 0.522631 0.505008 0.510743 0.541231 0.533280 0.612752
P_10 0.640789 0.750625 0.695601 0.763261 0.793677 0.926275
P_10 1.027448 1.039901 1.122567 1.116823 1.013533 1.042697
P_10 1.213310 1.116782 1.139179 0.964935 1.040499 1.089869
P_10 0.973571 0.932999 0.945559 1.008558 0.981889 0.939491
P_10 0.924568 0.999816 1.144218 1.014039 0.999469 1.011291
P_10 0.903303 0.958025 0.854735 0.894267 0.813821 0.734496
P_10 0.626376 0.518218 0.537039 0.480815 0.454842 0.431239
P_10 0.448473 0.436365 0.532784 0.599826 0.620564 0.741523
P_10 0.795192 0.888859 1.002197 1.022204 1.205267 1.265499
P_10 1.360638 1.397945 1.317283 1.438925 1.391951 1.394297
P_10 1.245024 1.218318 1.102555 1.077695 1.034748 1.051278
P_10 1.034620 0.895736 0.871070 0.881845 0.995649 1.033702
P_10 1.045132 1.179287 1.124622 1.096380 1.105194 1.125398
P_10 1.050315 0.994664 1.046187 0.908649 0.817931 0.791224
P_10 0.665651 0.629580 0.536408 0.527455 0.458909 0.466113
P_10 0.422135 0.499060 0.488000 0.600175 0.635229 0.709189
P_10 0.852540 0.854832 0.928872 1.009661 1.102119 1.198949
P_10 1.240829 1.164249 1.305124 1.304339 1.289979 1.312378
P_10 1.215121 1.226331 1.233234 1.071773 1.104696 1.110112
P_10 0.965355 0.918747 0.962130 0.953058 0.892478 1.098638
P_10 1.106493 1.052974 1.006464 1.218224 1.135913 1.105095
P_10 1.162173 1.177073 1.058100 0.906834 0.854462 0.865827
P_10 0.776982 0.621866 0.574858 0.495367 0.518044 0.437056
P_10 0.457690 0.436738 0.520564 0.575894 0.752630 0.775941
P_10 0.883844 0.929595 1.015583 1.108003 1.105676 1.190828
P_10 1.293303 1.185649 1.351447 1.257639 1.219466 1.290964
P_10 1.333058 1.216083 1.069409 1.131469 1.172041 0.993573
P_10 1.063392 1.046364 0.998661 1.015250 1.025818 1.003914
P_10 1.168359 1.081953 1.050089 1.110923 1.158348 1.033713
P_10 1.057733 1.071092 1.046328 0.943583 0.852232 0.799106
P_10 0.749597 0.621809 0.590860 0.547373 0.500592 0.477211
P_10 0.522525 0.516561 0.554204 0.623409 0.663834 0.788530
P_10 0.877896 0.989724 0.955652 1.096867 1.038384 1.271916
P_10 1.175982 1.262450 1.218988 1.208035 1.212345 1.200838
P_10 1.211523 1.101628 1.114866 1.029550 1.093832 1.059417
P_10 0.968117 1.203927 1.019456 1.056181 1.062346 1.088427
P_10 1.096499 0.976805 1.034671 1.133895 1.175367 1.155101
P_10 1.024560 1.074537 1.021684 1.006661 0.879050 0.818234
P_10 0.729173 0.682939 0.605997 0.512332 0.479972 0.499945
P_10 0.514017 0.526587 0.527811 0.670189 0.698041 0.880319
P_10 0.923037 1.000233 1.160633 1.284304 1.412157 1.387941
P_10 1.450382 1.426044 1.691028 1.450064 1.438391 1.378756
P_10 1.411413 1.183744 1.144516 0.993608 1.180076 1.123473
P_10 1.019847 1.061795 1.032371 1.090201 1.160490 1.029860
P_10 1.144740 1.123881 1.104441 1.063195 0.998104 1.031056
P_10 0.940084 0.987086 1.035512 0.963362 0.814506 0.800859
P_10 0.788808 0.728958 0.617952 0.586962 0.589050 0.492961
P_10 0.480145 0.527197 0.501958 0.548027 0.574840 0.690427
P_10 0.728360 0.848272 0.780744 0.985935 1.005493 1.082020
P_10 1.110886 1.206378 1.221174 1.287107 1.289829 1.233813
P_10 1.244362 1.247923 1.187279 1.219126 1.155309 1.171432
P_10 1.117110 1.063543 1.096516 1.061452 1.110593 1.050083
P_10 1.100824 1.018040 1.129361 1.054574 0.931751 1.008523
P_10 0.888737 0.866497 0.917695 0.832339 0.772293 0.756316
P_10 0.691223 0.643653 0.625282 0.608099 0.581667 0.510716
P_10 0.490629 0.502833 0.571253 0.510176 0.577274 0.573394
P_10 0.617824 0.674798 0.751558 0.739671 0.854823 0.953069
P_10 1.118992 1.096097 1.120072 1.071391 1.205863 1.126708
P_10 1.172934 1.154296 1.046909 1.061209 1.040747 1.023737
P_10 0.995550 0.932742 0.887742 0.985307 0.966374 0.940975
P_10 0.968352 1.021157 1.086264 0.989640 1.107718 1.090754
P_10 0.976232 0.916909 1.007262 0.928164 0.763489 0.777187
P_10 0.668420 0.607148 0.526792 0.485186 0.409317 0.474211
P_10 0.459112 0.484546 0.546309 0.611831 0.652446 0.755715
P_10 0.810552 0.963242 1.097581 1.178222 1.203913 1.221149
P_10 1.324389 1.389302 1.368249 1.487873 1.283754 1.390763
P_10 1.212315 1.206506 1.175968 1.069523 1.041562 0.987154
P_10 1.010388 0.904740 1.034769 0.975704 1.032249 1.011999
P_10 1.135316 1.036120 1.167060 1.105910 1.132805 1.054671
P_10 1.158728 1.041314 1.003467 0.922525 0.826328 0.700694
P_10 0.751287 0.678449 0.596169 0.522568 0.527363 0.480424
P_10 0.475258 0.461059 0.530200 0.605174 0.734287 0.708628
P_10 0.909242 0.897340 1.013815 1.122578 1.293241 1.212583
P_10 1.278445 1.305506 1.403529 1.417016 1.257113 1.258861
P_10 1.231102 1.188165 1.146308 1.068011 1.075808 0.960849
P_10 0.971761 1.053462 0.960779 1.051321 1.084314 1.141601
P_10 1.100313 1.069923 1.199012 1.184036 1.202305 1.200697
P_10 1.158731 1.086076 1.031800 1.023323 0.843234 0.775281
P_10 0.685507 0.633186 0.532697 0.512072 0.435065 0.465361
P_10 0.497630 0.538208 0.627819 0.681394 0.737988 0.818203
P_10 0.890332 0.988174 1.087409 1.112895 1.202126 1.207611
P_10 1.271385 1.290231 1.264755 1.299244 1.388044 1.301046
P_10 1.193240 1.157109 1.175194 1.165047 1.132438 1.193110
P_10 1.055295 1.040432 1.105403 1.086838 1.042072 0.989921
P_10 1.060001 1.152929 1.128759 1.144715 1.075809 1.099733
P_10 1.204053 1.044397 1.018007 0.987050 0.892737 0.817563
P_10 0.704077 0.646264 0.583408 0.519895 0.457463 0.496801
P_10 0.441658 0.507079 0.565007 0.597905 0.701110 0.842239
P_10 0.824287 0.978021 1.064324 1.163652 1.191507 1.302611
P_10 1.240549 1.436622 1.196290 1.346310 1.261024 1.330124
P_10 1.176380 1.222015 1.180930 1.054509 0.968441 1.053615
P_10 1.057444 1.044113 1.109280 0.965164 1.102187 1.053959
P_10 1.127651 1.103188 1.157901 1.113200 1.076677 1.073405
P_10 1.149365 1.130015 1.027140 0.968242 0.874418 0.802742
P_10 0.742805 0.663145 0.572585 0.515328 0.498255 0.534302
P_10 0.561803 0.534310 0.563334 0.680085 0.706021 0.889353
P_10 0.993405 1.094981 1.177474 1.287644 1.402941 1.510167
P_10 1.571599 1.472554 1.524818 1.556862 1.522519 1.416176
P_10 1.296621 1.107072 1.292235 1.259101 1.191296 1.103572
P_10 1.173748 1.149539 1.153130 1.149613 1.090323 1.128814
P_10 1.124455 1.166846 1.161736 1.113773 1.113958 1.064650
P_10 1.107972 1.019867 1.028981 0.942284 0.816051 0.755368
P_10 0.718864 0.734529 0.676565 0.694509 0.603548 0.472769
P_10 0.507463 0.487554 0.545070 0.538662 0.579136 0.705638
P_10 0.756583 0.794607 0.880927 1.024701 1.012662 1.071263
P_10 1.145122 1.267654 1.172604 1.169600 1.308560 1.204255
P_10 1.371411 1.250104 1.214231 1.139556 1.146391 1.162726
P_10 1.249718 1.010191 1.083409 1.057177 1.084136 1.008814
P_10 1.031165 1.157452 1.044843 1.080320 1.058546 1.053657
P_10 0.878748 0.900080 0.904690 0.879018 0.808145 0.751547
P_10 0.651598 0.695378 0.679386 0.596794 0.621378 0.562773
P_10 0.531814 0.504103 0.525334 0.517477 0.553293 0.645334
P_10 0.675046 0.735215 0.729356 0.841216 0.905270 0.877479
P_10 1.067928 1.062346 1.153938 1.250982 1.349396 1.239028
P_10 1.074379 1.114266 1.196159 1.189070 1.242893 1.114032
P_10 1.074926 1.071625 0.957624 1.014894 0.997738 1.031672
P_10 1.102318 1.027076 1.099604 0.979391 1.119705 1.126511
P_10 1.079344 1.049933 0.975622 0.938754 0.784469 0.733911
P_10 0.728968 0.666481 0.611249 0.474399 0.502145 0.449940
P_10 0.454458 0.497578 0.553609 0.588308 0.655993 0.759390
P_10 0.849065 0.924461 1.003928 1.094482 1.220290 1.325501
P_10 1.431014 1.330021 1.392241 1.480185 1.491905 1.428858
P_10 1.406672 1.175489 1.231554 1.069464 1.149704 1.001734
P_10 1.020778 0.975232 0.963453 0.935055 1.076216 1.070767
P_10 1.005669 1.133745 1.000674 1.134634 1.139714 1.281418
P_10 1.040505 1.019016 1.066953 0.946386 0.888780 0.797846
P_10 0.740107 0.623190 0.597798 0.495316 0.441843 0.425588
P_10 0.495723 0.548286 0.515832 0.629661 0.670717 0.774605
P_10 0.959418 0.915907 0.979313 1.082053 1.251145 1.235182
P_10 1.301496 1.267350 1.368722 1.268927 1.250557 1.304896
P_10 1.309408 1.217565 1.147572 1.103943 0.965924 1.033761
P_10 1.104048 1.010512 1.023152 1.034017 1.062559 1.177116
P_10 1.136639 1.064003 1.160101 1.230567 1.296749 1.182473
P_10 1.128691 1.109410 1.119111 1.000503 0.849081 0.805765
P_10 0.698775 0.664812 0.593246 0.511645 0.472142 0.469802
P_10 0.473648 0.532276 0.543089 0.639187 0.647261 0.754406
P_10 0.970809 0.992562 1.085730 1.122365 1.234428 1.239576
P_10 1.415712 1.322553 1.282476 1.378001 1.209601 1.352454
P_10 1.316131 1.204651 1.273135 1.173145 1.062415 1.128887
P_10 1.114303 1.130813 1.067510 1.071722 1.217915 1.091931
P_10 1.124742 1.224128 1.131887 1.089315 1.143546 1.089316
P_10 1.146270 1.094775 1.075916 1.001713 0.925542 0.835644
P_10 0.724109 0.653515 0.621121 0.567242 0.478998 0.502504
P_10 0.533133 0.500955 0.544111 0.698473 0.754830 0.738249
P_10 0.821252 1.011846 1.124642 1.168433 1.176401 1.378001
P_10 1.332634 1.347694 1.297311 1.159323 1.335892 1.138685
P_10 1.227842 1.122782 1.260699 1.111563 1.089187 1.172940
P_10 1.074660 0.969845 0.895560 0.985488 1.148729 1.194035
P_10 1.092792 1.043818 1.168270 1.115034 1.061168 1.189303
P_10 1.181632 1.065455 1.015939 1.102642 0.899086 0.855645
P_10 0.794353 0.717499 0.591054 0.536400 0.527402 0.565313
P_10 0.509575 0.555165 0.556487 0.690708 0.787818 0.877112
P_10 1.072632 1.134735 1.245391 1.357792 1.368169 1.424109
P_10 1.599707 1.606736 1.375541 1.435359 1.576495 1.542157
P_10 1.404878 1.159455 1.298059 1.143955 1.210340 1.170040
P_10 1.169835 1.135835 1.083993 1.134769 1.233220 1.084301
P_10 1.121009 1.227399 1.122149 1.180738 1.142520 1.089645
P_10 1.179997 1.065617 0.945620 1.008220 0.909333 0.936970
P_10 0.719617 0.716250 0.715575 0.606204 0.596828 0.538050
P_10 0.535746 0.527902 0.524942 0.559965 0.605535 0.659445
P_10 0.797264 0.857087 0.891862 0.974038 1.108847 1.107588
P_10 1.206659 1.257697 1.336315 1.386733 1.414390 1.310894
P_10 1.320249 1.213024 1.168195 1.178195 1.306336 1.208978
P_10 1.196793 1.172378 1.144274 1.156169 1.133281 1.191398
P_10 1.175654 1.128485 1.058405 1.134111 1.026746 1.024521
P_10 1.064511 1.022119 0.875512 0.893230 0.768338 0.793045
P_10 0.663635 0.748694 0.670454 0.637288 0.607486 0.564044
P_10 0.518868 0.541218 0.530812 0.582864 0.586182 0.600025
P_10 0.651736 0.730175 0.755098 0.739115 0.918027 0.847580
P_10 1.036764 1.186802 1.104574 1.158564 1.118947 1.178307
P_10 1.147131 1.131275 1.072958 1.159606 1.147160 1.024277
P_10 1.032526 1.054900 1.088842 1.025324 1.026209 1.100282
P_10 1.127474 1.139102 1.061586 1.079872 1.079404 1.109954
P_10 1.099751 0.973492 0.960760 0.914130 0.902024 0.764564
P_10 0.698777 0.594051 0.553285 0.547781 0.488665 0.462476
P_10 0.454984 0.507255 0.530352 0.597046 0.698741 0.790003
P_10 0.877687 0.968997 1.039896 1.203280 1.328821 1.413205
P_10 1.302517 1.314275 1.481390 1.530499 1.436299 1.489460
P_10 1.329131 1.218488 1.197739 1.181744 1.029880 1.114814
P_10 1.028418 0.966011 0.993250 1.007620 1.054444 1.038890
P_10 0.970226 1.146928 1.110833 1.134779 1.158522 1.165815
P_10 1.163206 1.145698 1.064184 1.003768 0.844981 0.783908
P_10 0.727754 0.606892 0.522812 0.514706 0.510135 0.538662
P_10 0.465358 0.529490 0.502727 0.621550 0.741478 0.764851
P_10 0.971167 1.014774 1.047572 1.177167 1.254355 1.309084
P_10 1.286690 1.375818 1.306447 1.439869 1.348282 1.249268
P_10 1.244535 1.167016 1.260678 1.237886 1.077557 1.052162
P_10 1.023607 0.994625 1.044005 1.040032 1.078074 1.142220
P_10 1.103248 1.216446 1.249094 1.194329 1.169758 1.115744
P_10 1.157817 1.075765 1.026966 1.067919 0.977813 0.778070
P_10 0.753072 0.681428 0.601296 0.507563 0.458882 0.488864
P_10 0.502504 0.514428 0.599605 0.690635 0.792872 0.844815
P_10 0.960092 0.902841 1.000310 1.135179 1.198672 1.269230
P_10 1.400552 1.352795 1.274312 1.397630 1.427487 1.472560
P_10 1.331212 1.223960 1.211736 1.231038 1.245723 1.178976
P_10 1.154802 1.119838 1.148247 1.064306 1.090366 1.071216
P_10 1.008363 1.114583 1.071444 1.240262 1.209813 1.276664
P_10 1.159457 1.127961 1.062782 1.058749 0.933076 0.778445
P_10 0.710000 0.729786 0.596167 0.572156 0.525933 0.492108
P_10 0.499923 0.536816 0.623954 0.669348 0.742611 0.824323
P_10 0.919481 1.016805 1.028547 1.222695 1.271946 1.297029
P_10 1.312430 1.386221 1.315960 1.250372 1.391656 1.288519
P_10 1.268462 1.173522 1.192776 1.091382 1.173033 1.066058
P_10 1.006029 1.035929 1.180487 1.114490 1.102168 1.123960
P_10 1.125326 1.189635 1.311071 1.281242 1.180973 1.151958
P_10 1.087930 1.050123 1.095358 1.048133 0.921145 0.937154
P_10 0.782613 0.687597 0.660474 0.498940 0.538484 0.486826
P_10 0.538129 0.563457 0.610447 0.696890 0.781240 0.914385
P_10 0.905189 1.115471 1.220377 1.309289 1.464891 1.505688
P_10 1.499166 1.579034 1.539036 1.519584 1.503619 1.434440
P_10 1.414521 1.386158 1.247000 1.257403 1.254953 1.248052
P_10 1.226447 1.163316 1.127264 1.156715 1.171043 1.198753
P_10 1.134709 1.181793 1.199243 1.206195 1.227127 1.122546
P_10 1.102387 1.044530 1.079383 0.985183 0.938375 0.876437
P_10 0.787577 0.774557 0.676374 0.604496 0.619236 0.581318