; Filename: networks/Net1.inp
; WNTR: 0.1.6
; Created: 2019-04-09 13:28:56
[TITLE]
EPANET Example Network 1
A simple example of modeling chlorine decay. Both bulk and
wall reactions are included.

[JUNCTIONS]
;ID                      Elevation       Demand Pattern                 
 10                               710               0                            ;
 11                               710               0                            ;
 12                               700               0                            ;
 13                               695               0                            ;
 21                               700               0                            ;
 22                               695               0                            ;
 23                               690               0                            ;
 31                               700               0                            ;
 32                               710               0                            ;

[RESERVOIRS]
;ID                                   Head                  Pattern
 9                                800                            ;

[TANKS]
;ID                              Elevation           Init Level            Min Level            Max Level             Diameter           Min Volume Volume Curve        
 2                                850             120             100             150            50.5               0                        ;

[PIPES]
;ID                   Node1                Node2                              Length             Diameter            Roughness           Minor Loss               Status
 10                   10                   11                             10530              18             100               0                 Open   ;
 11                   11                   12                              5280              14             100               0                 Open   ;
 12                   12                   13                              5280              10             100               0                 Open   ;
 21                   21                   22                              5280              10             100               0                 Open   ;
 22                   22                   23                              5280              12             100               0                 Open   ;
 31                   31                   32                              5280               6             100               0                 Open   ;
 110                  2                    12                               200              18             100               0                 Open   ;
 111                  11                   21                              5280              10             100               0                 Open   ;
 112                  12                   22                              5280              12             100               0                 Open   ;
 113                  13                   23                              5280               8             100               0                 Open   ;
 121                  21                   31                              5280               8             100               0                 Open   ;
 122                  22                   32                              5280               6             100               0                 Open   ;

[PUMPS]
;ID                   Node1                Node2                Properties          
 9                    9                    10                   HEAD     1                      ;

[VALVES]
;ID                   Node1                Node2                            Diameter Type              Setting           Minor Loss

[TAGS]
;type      name       tag       

[DEMANDS]
;ID        Demand     Pattern   
10         0.0        P_10      
11         150.0      P_11      
12         150.0      P_12      
13         100.0      P_13      
21         150.0      P_21      
22         200.0      P_22      
23         150.0      P_23      
31         100.0      P_31      
32         100.0      P_32      

[STATUS]
;ID        Setting   
[PATTERNS]
;ID        Multipliers

1 1.000000 1.200000 1.400000 1.600000 1.400000 1.200000
1 1.000000 0.800000 0.600000 0.400000 0.600000 0.800000

P_10 0.598052 0.533845 0.440014 0.388155 0.337870 0.345059
P_10 0.353722 0.351816 0.392282 0.490490 0.522858 0.635174
P_10 0.702443 0.815891 0.924867 1.030244 1.072651 1.134886
P_10 1.241620 1.296320 1.176715 1.345954 1.314715 1.185133
P_10 1.227676 1.118060 1.040356 1.059334 0.828806 0.822667
P_10 0.883533 0.826344 0.904661 0.789346 0.922448 0.907616
P_10 1.043035 0.981700 1.048903 1.041931 1.103016 1.093301
P_10 0.992141 0.956526 0.920676 0.923146 0.764510 0.713237
P_10 0.620916 0.577175 0.531784 0.450958 0.410604 0.374752
P_10 0.384392 0.383910 0.464477 0.505966 0.542183 0.680881
P_10 0.680584 0.794713 0.919100 1.032049 1.004861 1.147455
P_10 1.182163 1.109367 1.110160 1.207875 1.336006 1.134867
P_10 1.178481 1.148289 1.041540 1.052926 0.962936 0.874158
P_10 0.865364 0.879808 0.805625 0.845109 0.882440 0.933872
P_10 1.090033 1.062691 1.053040 1.122440 1.113528 1.138364
P_10 0.981931 0.969345 0.941521 0.804416 0.872050 0.749995
P_10 0.581109 0.576911 0.466284 0.435398 0.371596 0.339680
P_10 0.391224 0.434069 0.410574 0.498909 0.645031 0.656665
P_10 0.724249 0.838818 0.915115 0.974516 0.928176 1.193071
P_10 1.127797 1.117526 1.276388 1.192507 1.153062 1.094521
P_10 1.182257 1.176676 1.058065 1.012113 1.070774 0.987773
P_10 0.937677 0.904090 0.908822 0.906995 0.974213 0.952696
P_10 1.102519 1.041464 1.115208 1.121219 1.133154 1.046518
P_10 1.044735 1.058936 1.002506 0.882405 0.834617 0.796792
P_10 0.647678 0.573946 0.484301 0.444633 0.388159 0.388025
P_10 0.347466 0.389100 0.433247 0.480129 0.589694 0.672156
P_10 0.812032 0.816624 0.990204 0.993972 1.134139 1.190129
P_10 1.168820 1.285964 1.131609 1.208093 1.132194 1.157262
P_10 1.012945 1.077225 1.041219 0.935238 0.980675 0.960836
P_10 0.976276 1.002300 0.963978 0.940076 1.090763 1.003690
P_10 1.014187 1.051848 1.098401 1.136094 1.083782 1.150380
P_10 1.031056 1.003089 0.987695 0.899789 0.797633 0.755354
P_10 0.710425 0.612475 0.510592 0.507388 0.416619 0.439322
P_10 0.417422 0.424060 0.447749 0.507250 0.624304 0.714452
P_10 0.809045 1.041007 1.162474 1.177114 1.237697 1.312944
P_10 1.360144 1.426789 1.432196 1.423833 1.232186 1.387121
P_10 1.310101 1.192651 1.052556 0.997900 1.067196 0.999065
P_10 0.963260 0.886047 1.061286 0.972862 1.006212 1.033958
P_10 1.109009 1.104445 1.135820 0.952840 1.089402 1.086024
P_10 0.962179 0.953520 0.990385 0.838273 0.827403 0.714738
P_10 0.731194 0.598200 0.579360 0.536726 0.483425 0.444151
P_10 0.406636 0.426919 0.459049 0.445299 0.467611 0.599754
P_10 0.578984 0.703051 0.707522 0.853127 0.916364 1.013717
P_10 1.055110 1.065615 1.137690 1.225303 1.159794 1.248948
P_10 1.135924 1.115262 1.148784 1.041597 0.982715 1.029033
P_10 1.035965 1.066301 0.980988 0.978499 1.022310 1.012603
P_10 1.093103 1.003077 1.055805 0.935267 0.953329 0.968115
P_10 0.964638 0.909736 0.836319 0.795305 0.775278 0.735745
P_10 0.625939 0.591250 0.510127 0.510086 0.497332 0.423238
P_10 0.435739 0.394292 0.402624 0.425083 0.438692 0.482876
P_10 0.533328 0.554836 0.637433 0.660691 0.755158 0.816281
P_10 0.927806 0.844640 1.028867 0.961388 1.017364 1.023412
P_10 1.028804 1.034903 1.011307 0.973662 0.926516 0.969527
P_10 0.901525 0.959793 0.946276 0.917889 0.942354 0.964091
P_10 0.968406 1.003701 1.024836 1.008815 1.003213 1.085133
P_10 0.985874 0.981056 0.939458 0.816489 0.792505 0.665262
P_10 0.642243 0.548512 0.487077 0.398181 0.361240 0.363147
P_10 0.339678 0.360304 0.437073 0.500887 0.529469 0.637698
P_10 0.704645 0.846957 0.875673 1.017900 1.168114 1.124948
P_10 1.353667 1.297976 1.333006 1.411428 1.379155 1.263982
P_10 1.267770 1.084827 1.007891 1.001143 0.962608 0.953054
P_10 0.884241 0.955085 0.882561 0.886149 0.901606 0.948412
P_10 0.896246 1.004886 1.098388 1.037383 1.069553 1.019466
P_10 1.027783 1.134120 0.874064 0.957629 0.795644 0.744908
P_10 0.711941 0.502783 0.539024 0.502528 0.386292 0.366691
P_10 0.406462 0.383149 0.425725 0.499361 0.615156 0.619890
P_10 0.742698 0.814388 0.915865 1.107326 1.192447 1.149708
P_10 1.182317 1.173889 1.304533 1.233560 1.231911 1.199566
P_10 1.095943 1.065705 1.072579 1.012133 0.923899 0.900917
P_10 0.941933 0.908219 0.988991 0.898149 0.940358 0.991962
P_10 1.129259 1.114820 1.122973 1.150820 1.088206 1.152086
P_10 1.077369 1.051170 0.921869 0.886557 0.860549 0.665279
P_10 0.736009 0.562289 0.495106 0.441459 0.379281 0.368834
P_10 0.377385 0.410261 0.491375 0.522889 0.603476 0.731778
P_10 0.840511 0.794547 0.887910 1.037731 1.104410 1.141225
P_10 1.257915 1.220585 1.138614 1.311208 1.206052 1.217373
P_10 1.214306 1.071660 1.124852 1.024568 1.046204 0.948231
P_10 1.083029 1.062506 0.923655 0.985417 0.941475 1.036405
P_10 1.107690 1.004213 1.114833 1.161675 1.181069 1.185400
P_10 1.012280 1.075305 0.935994 0.904523 0.841934 0.749813
P_10 0.652353 0.551120 0.508479 0.453876 0.359571 0.381719
P_10 0.384404 0.435210 0.495381 0.510911 0.657548 0.701772
P_10 0.768865 0.851219 0.991946 1.075697 1.133621 1.193604
P_10 1.170758 1.154601 1.206667 1.259328 1.122846 1.187076
P_10 1.201787 1.112403 1.113391 0.991383 1.018761 0.936020
P_10 1.006912 1.040596 0.982152 0.995287 0.963414 1.087182
P_10 1.120263 1.174839 1.161332 1.105339 1.040804 1.144831
P_10 1.110358 0.985214 0.940773 0.895221 0.842225 0.757087
P_10 0.743093 0.585570 0.524931 0.448769 0.415754 0.446497
P_10 0.420915 0.451373 0.444513 0.543858 0.670051 0.825047
P_10 0.841549 0.961970 1.161703 1.180089 1.299826 1.482540
P_10 1.474340 1.372004 1.249805 1.390876 1.322925 1.221177
P_10 1.174728 1.229955 1.161141 1.078625 1.050750 1.061134
P_10 1.041213 1.048904 0.986374 1.070425 1.111218 0.963293
P_10 1.060912 1.135997 1.138898 1.075166 1.036560 1.003638
P_10 1.085408 1.057622 0.900285 0.890433 0.894050 0.801699
P_10 0.738104 0.739623 0.552644 0.550392 0.523759 0.466274
P_10 0.445845 0.425775 0.419169 0.455240 0.498035 0.567828
P_10 0.605753 0.786837 0.763636 0.886694 0.929141 0.975232
P_10 1.137483 1.055934 1.119190 1.119806 1.142591 1.111491
P_10 1.166933 1.089128 1.071084 1.015523 1.153678 1.063289
P_10 1.016193 1.037962 1.152021 1.101616 1.085732 1.070625
P_10 1.078949 1.090095 1.050339 1.088746 1.029240 0.940221
P_10 0.962123 0.916491 0.775375 0.714516 0.732595 0.663399
P_10 0.605941 0.604838 0.586573 0.486100 0.452250 0.435029
P_10 0.428245 0.408090 0.404392 0.418419 0.426560 0.454705
P_10 0.530853 0.576927 0.618729 0.713230 0.790688 0.835662
P_10 0.867303 0.943126 1.029911 1.128854 1.021101 1.064538
P_10 1.154069 1.117402 0.981017 0.957537 0.965293 0.966979
P_10 0.944903 0.910181 1.029269 0.945499 1.032394 1.019677
P_10 0.926260 1.052315 1.124220 1.091030 1.038540 1.015074
P_10 0.982285 0.981382 0.871368 0.888375 0.704989 0.662252
P_10 0.652322 0.502473 0.469508 0.408616 0.362239 0.373210
P_10 0.379671 0.372422 0.407906 0.480675 0.516718 0.689383
P_10 0.746225 0.831085 0.879558 1.059314 1.083151 1.262748
P_10 1.147465 1.260887 1.235416 1.446451 1.287501 1.350678
P_10 1.210828 1.184503 1.129844 1.092104 1.042437 0.837341
P_10 0.875472 0.971106 0.856740 0.968742 0.939479 0.991442
P_10 1.045227 1.103437 1.100963 1.131790 1.192217 1.127826
P_10 1.136971 1.087958 0.974401 0.924571 0.786777 0.644799
P_10 0.668680 0.547540 0.508406 0.441130 0.368278 0.397918
P_10 0.410817 0.406687 0.417738 0.539048 0.555417 0.675122
P_10 0.752739 0.855961 0.948113 1.018719 1.036871 1.144180
P_10 1.188110 1.314770 1.281273 1.202494 1.254205 1.114171
P_10 1.163057 1.121910 1.118225 0.988786 1.066630 0.920275
P_10 1.042379 0.902706 0.899896 1.014022 1.047077 1.096884
P_10 1.033128 1.071380 1.092667 1.239144 1.101203 1.122645
P_10 1.061250 1.086068 1.034474 0.959443 0.968783 0.670732
P_10 0.663465 0.604254 0.458620 0.430383 0.392784 0.357595
P_10 0.380856 0.446889 0.460561 0.526181 0.664668 0.637417
P_10 0.823303 0.865996 1.022467 1.066520 1.172960 1.083988
P_10 1.114842 1.193838 1.355315 1.337400 1.210827 1.249814
P_10 1.175395 1.250613 1.156168 1.075896 1.020361 1.085821
P_10 1.064453 1.066622 1.019549 0.996987 0.974120 1.172471
P_10 1.113658 1.162851 1.150939 1.092633 1.236221 1.053114
P_10 1.122237 1.120679 1.035227 0.931916 0.809403 0.808730
P_10 0.662416 0.599920 0.500355 0.468068 0.385466 0.355158
P_10 0.370519 0.396164 0.480704 0.536954 0.601624 0.734947
P_10 0.908955 0.869099 1.026064 0.981617 1.128322 1.224686
P_10 1.223790 1.209460 1.435974 1.256498 1.399367 1.121308
P_10 1.138085 1.210559 1.136815 1.049837 0.979019 1.007977
P_10 0.951216 1.057978 0.993861 1.029837 0.924382 0.980041
P_10 1.057048 1.057642 1.172363 1.267747 1.166922 1.084424
P_10 0.988193 1.004102 1.003367 0.962613 0.887659 0.781359
P_10 0.713182 0.612921 0.495036 0.480810 0.458049 0.432711
P_10 0.421093 0.459643 0.495338 0.558677 0.653506 0.773201
P_10 0.949810 0.977906 1.129928 1.323388 1.291974 1.328348
P_10 1.465097 1.534627 1.452718 1.404276 1.233858 1.301331
P_10 1.304631 1.124089 1.233198 1.173333 1.087559 1.074266
P_10 1.078346 1.013376 1.069933 1.019177 0.945467 1.070459
P_10 1.084831 1.169340 1.131694 1.176517 1.025714 1.155379
P_10 1.069907 1.039139 0.982112 0.904208 0.841383 0.783237
P_10 0.739613 0.678668 0.633593 0.534929 0.531743 0.470319
P_10 0.456416 0.438336 0.446877 0.491366 0.586177 0.577291
P_10 0.639685 0.732049 0.762220 0.884152 0.948857 1.021720
P_10 1.029827 1.131224 1.257883 1.129526 1.156154 1.270395
P_10 1.114789 1.104338 1.182000 1.025032 1.075757 1.044665
P_10 1.079494 1.067642 1.071190 1.022562 1.046753 1.106962
P_10 1.189483 1.236575 1.110163 1.133815 1.101922 0.908834
P_10 1.037120 0.792369 0.868372 0.809375 0.768381 0.717486
P_10 0.676295 0.578579 0.573824 0.484277 0.471583 0.445445
P_10 0.436648 0.408913 0.402136 0.400943 0.433365 0.512802
P_10 0.530505 0.533952 0.683055 0.711798 0.802733 0.824190
P_10 0.890590 1.040597 1.027847 1.031020 1.154456 0.991908
P_10 1.159799 1.067150 1.017543 0.951674 0.887917 0.991238
P_10 0.972083 0.926665 1.022112 0.885751 0.924128 0.984426
P_10 1.049165 0.946487 1.100691 1.109190 1.145875 1.033795
P_10 1.059980 1.026264 0.976166 0.846710 0.741160 0.724954
P_10 0.577842 0.539495 0.498110 0.417818 0.358719 0.353066
P_10 0.349817 0.400631 0.425796 0.477251 0.620553 0.724216
P_10 0.751290 0.706179 0.971196 1.129193 1.187307 1.187568
P_10 1.274026 1.320511 1.341281 1.309491 1.315152 1.249828
P_10 1.214510 1.203597 1.179753 1.046124 0.965359 1.067969
P_10 0.928518 0.952948 0.915163 0.997321 1.060687 0.979551
P_10 1.066878 1.032187 1.110776 1.122412 1.105612 1.159016
P_10 1.100224 1.122290 1.089793 0.904457 0.901856 0.750383
P_10 0.717598 0.611388 0.503607 0.467866 0.421949 0.428201
P_10 0.400492 0.404257 0.497495 0.521269 0.569730 0.712181
P_10 0.767327 0.826191 1.041046 0.980332 1.212518 1.117919
P_10 1.171075 1.322023 1.321351 1.209286 1.255406 1.221486
P_10 1.171659 1.129426 1.037993 1.120555 0.938672 0.971558
P_10 0.978457 1.016704 0.884909 1.081626 1.078620 0.967208
P_10 1.032974 1.095150 1.219018 1.241202 1.061182 1.267354
P_10 1.160507 1.082348 0.990681 0.954544 0.879121 0.711512
P_10 0.749219 0.564374 0.508721 0.468350 0.398848 0.361808
P_10 0.415022 0.410764 0.447675 0.547209 0.633430 0.725043
P_10 0.753477 0.969183 0.939130 0.958461 1.161825 1.163095
P_10 1.166094 1.291182 1.350412 1.261973 1.231303 1.257844
P_10 1.231798 1.174300 1.132009 1.113018 1.104811 1.077201
P_10 1.053762 1.038353 1.046515 0.969939 1.053377 1.106397
P_10 1.141511 1.133812 1.111235 1.195980 1.142257 1.164487
P_10 1.067414 1.114820 1.062489 0.965545 0.793546 0.808387
P_10 0.646858 0.656384 0.521662 0.478776 0.408655 0.378237
P_10 0.373061 0.430896 0.473670 0.512523 0.609902 0.732288
P_10 0.846178 0.966473 1.114798 1.107294 1.161727 1.232939
P_10 1.303337 1.474862 1.257016 1.241693 1.264149 1.096435
P_10 1.216159 1.213560 1.075258 1.015967 1.051285 1.050813
P_10 0.908297 1.028465 1.007993 0.997098 1.118132 1.047903
P_10 1.020543 1.155861 1.165971 1.190921 1.053770 1.143722
P_10 1.066959 1.031351 1.028060 0.898512 0.846303 0.783691
P_10 0.699971 0.609979 0.534128 0.409122 0.444678 0.402014
P_10 0.421916 0.461114 0.514603 0.588246 0.661003 0.845936
P_10 0.935671 1.047154 1.132093 1.258767 1.232745 1.326425
P_10 1.473014 1.431253 1.452252 1.416879 1.396432 1.329089
P_10 1.206392 1.154259 1.141420 1.163508 1.138091 1.116716
P_10 0.986038 1.002748 1.047480 1.156219 1.161011 1.115147
P_10 1.143603 1.154667 1.137044 1.206198 1.135887 1.192607
P_10 1.153993 1.039534 0.959717 0.944454 0.843819 0.889934
P_10 0.749185 0.686223 0.611973 0.545773 0.510026 0.457484
P_10 0.450722 0.448507 0.421542 0.479656 0.487853 0.608649
P_10 0.652373 0.719592 0.864087 0.918723 1.038915 1.146626
P_10 1.249389 1.147957 1.143764 1.296615 1.282437 1.308011
P_10 1.229500 1.151921 1.119719 1.103802 1.083914 1.042508
P_10 1.162379 1.049653 1.104022 1.068471 1.092457 1.134404
P_10 1.006085 1.026262 1.129679 1.095989 1.132776 1.052466
P_10 1.038854 0.959340 0.974871 0.846431 0.742770 0.725285
P_10 0.700666 0.624645 0.574545 0.521726 0.496067 0.409929
P_10 0.432139 0.434178 0.438700 0.429396 0.461606 0.523524
P_10 0.533388 0.600812 0.678200 0.695731 0.787785 0.938885
P_10 0.957669 1.069740 1.098497 0.963389 1.230526 1.076688
P_10 1.092143 1.155180 1.049421 1.032406 0.963492 0.886756
P_10 0.907693 0.985396 0.911063 0.947404 0.995457 1.026858
P_10 1.046987 1.095818 1.090548 1.162485 1.130109 1.105527
P_10 1.038109 1.078105 0.977061 0.774707 0.759750 0.727522
P_10 0.612115 0.561715 0.496112 0.366829 0.387367 0.352590
P_10 0.400821 0.420065 0.438417 0.493407 0.586672 0.689392
P_10 0.764247 0.939559 1.002494 0.990363 1.250655 1.275497
P_10 1.267782 1.318485 1.419447 1.363031 1.412983 1.366664
P_10 1.192510 1.159652 1.190268 1.003825 1.012817 0.903733
P_10 0.987178 0.846644 0.911655 0.861305 0.960384 1.076540
P_10 1.100754 1.018628 1.087914 1.194897 1.245537 1.223064
P_10 1.096651 1.195800 0.962325 0.896023 0.915992 0.773200
P_10 0.666196 0.585811 0.518249 0.530427 0.443284 0.414276
P_10 0.405377 0.421255 0.468840 0.538409 0.603059 0.675757
P_10 0.771322 0.883881 0.965913 1.051878 1.197282 1.207107
P_10 1.230061 1.359784 1.240486 1.385017 1.279736 1.194423
P_10 1.129088 1.200917 1.137258 1.084335 1.006697 0.941549
P_10 0.927831 0.968399 1.058375 0.994575 1.005759 1.132340
P_10 1.079460 1.152208 1.232010 1.108236 1.252825 1.241117
P_10 1.233171 1.124156 0.981557 0.815748 0.840255 0.755362
P_10 0.680893 0.587792 0.495490 0.444988 0.440316 0.410867
P_10 0.428321 0.424278 0.472931 0.553459 0.695373 0.716147
P_10 0.823298 0.880307 1.067181 1.130581 1.070127 1.187091
P_10 1.260543 1.308281 1.209850 1.301024 1.320216 1.205402
P_10 1.331846 1.242518 1.232918 1.159055 1.136377 1.031718
P_10 1.106030 1.001326 1.017135 0.967197 1.061952 0.989730
P_10 1.046590 1.198520 1.175456 1.222721 1.164667 1.217071
P_10 1.115970 1.206330 1.018282 1.000408 0.903405 0.845048
P_10 0.710599 0.627628 0.552600 0.498562 0.405313 0.399752
P_10 0.402113 0.441759 0.471636 0.540335 0.720020 0.800081
P_10 0.915121 1.010037 1.034812 1.088818 1.216213 1.237888
P_10 1.367038 1.285456 1.282171 1.277851 1.225486 1.225873
P_10 1.239170 1.200898 1.130692 1.035397 1.084073 1.062162
P_10 1.039392 0.972296 0.966780 1.124213 1.126526 1.124551
P_10 1.223710 1.230891 1.080910 1.295288 1.115718 1.233169
P_10 1.096120 1.202734 1.046745 0.949810 0.868263 0.831687
P_10 0.756453 0.709666 0.539556 0.525080 0.424196 0.458743
P_10 0.401147 0.477173 0.525659 0.569317 0.678322 0.834934
P_10 0.962621 1.025896 1.063622 1.268924 1.295139 1.384784
P_10 1.521680 1.563040 1.471282 1.404198 1.291997 1.418009
P_10 1.303469 1.357827 1.334836 1.200390 1.163625 1.069342
P_10 1.143604 1.010463 1.129974 1.140699 1.124052 1.157274
P_10 1.130052 1.285161 1.153286 1.225241 1.194994 1.154089
P_10 1.098177 1.150373 0.979852 0.933936 1.010431 0.820884
P_10 0.854855 0.684568 0.617061 0.556847 0.508290 0.487025
P_10 0.439621 0.451577 0.488782 0.523999 0.548471 0.559664
P_10 0.691089 0.776391 0.838169 0.919453 0.960986 1.056338
P_10 1.213485 1.225711 1.216961 1.285468 1.193907 1.264046
P_10 1.216716 1.225171 1.221467 1.074710 1.265679 1.049229
P_10 1.117871 1.151902 1.017376 1.032138 1.207600 1.190390
P_10 1.253678 1.073434 1.210666 1.144534 1.102239 1.030430
P_10 1.052951 0.994821 0.885700 0.818194 0.762404 0.745092
P_10 0.697624 0.667885 0.549322 0.529360 0.469442 0.484562
P_10 0.437229 0.456925 0.440667 0.452318 0.492574 0.505208
P_10 0.543010 0.647619 0.670824 0.784956 0.847774 0.872324
P_10 1.008473 1.035467 1.115836 1.127967 1.138994 1.224744
P_10 1.104222 1.105117 1.122097 1.055130 1.093298 0.998939
P_10 1.065011 1.078773 0.943532 1.044290 0.983657 1.064975
P_10 0.920929 1.066743 1.125977 1.179072 1.221860 1.136895
P_10 1.051053 1.059325 0.937600 0.927153 0.817447 0.739748
P_10 0.581435 0.590806 0.505305 0.477320 0.359047 0.420034
P_10 0.414677 0.468435 0.454419 0.524424 0.590317 0.729002
P_10 0.751145 0.896836 0.969349 1.000106 1.251174 1.263215
P_10 1.364959 1.365853 1.347547 1.403505 1.481857 1.410559
P_10 1.312758 1.273622 1.277164 1.075873 1.072362 0.991885
P_10 0.992258 0.920632 1.013449 0.934252 1.079712 1.005419
P_10 1.099175 1.039753 1.078278 1.188391 1.122557 1.154303
P_10 1.191313 1.093438 1.105308 0.924139 0.906613 0.796305
P_10 0.734989 0.650291 0.600809 0.440371 0.454880 0.401854
P_10 0.418727 0.435097 0.487288 0.514071 0.646167 0.707703
P_10 0.852055 0.949788 0.982058 1.031819 1.117850 1.267965
P_10 1.316414 1.323332 1.333816 1.374762 1.341836 1.294759
P_10 1.256585 1.189234 1.265578 1.076273 1.060543 1.023338
P_10 1.006858 1.010900 0.933217 0.992126 1.037983 1.138982
P_10 1.197249 1.216177 1.191464 1.273857 1.304906 1.298931
P_10 1.122812 1.187865 1.090921 0.987993 0.930974 0.830842
P_10 0.657186 0.681846 0.512421 0.437411 0.388599 0.397012
P_10 0.444008 0.445936 0.493959 0.595142 0.677590 0.716694
P_10 0.773622 0.947185 1.007262 1.132834 1.190345 1.261266
P_10 1.353307 1.442083 1.432583 1.405172 1.312839 1.398095
P_10 1.204235 1.282408 1.314308 1.155477 1.062417 1.164178
P_10 1.098717 1.012915 1.042686 1.068566 1.117729 0.987120
P_10 1.240616 1.083880 1.213129 1.251311 1.180609 1.312229
P_10 1.146480 1.189399 1.046299 1.007500 0.977732 0.786006
P_10 0.677992 0.610325 0.539894 0.504911 0.433824 0.411415
P_10 0.394753 0.390790 0.490811 0.578864 0.696221 0.768397
P_10 0.833381 0.990581 0.944726 1.128417 1.194417 1.381612
P_10 1.222810 1.377855 1.413570 1.410738 1.257319 1.189140
P_10 1.045435 1.212188 1.176243 1.127048 1.088278 1.098535
P_10 1.059453 1.043902 1.050028 1.059237 1.076138 1.073253
P_10 1.084293 1.239651 1.282132 1.256153 1.201330 1.268722
P_10 1.149186 1.100196 1.000908 1.122928 0.905417 0.810455
P_10 0.769004 0.663294 0.557825 0.464388 0.488121 0.406472
P_10 0.441667 0.480389 0.562194 0.622299 0.652236 0.800893
P_10 0.918906 1.088923 1.291396 1.310462 1.362447 1.598577
P_10 1.625732 1.604010 1.519330 1.603962 1.462074 1.368600
P_10 1.364663 1.360224 1.200840 1.261068 1.267570 1.095486
P_10 1.213613 1.121286 1.156335 1.102106 1.076666 1.216419
P_10 1.152458 1.143470 1.217427 1.185537 1.123927 1.160649
P_10 1.202722 1.045092 1.050492 1.037478 0.943413 0.762454
P_10 0.779402 0.750947 0.692800 0.518085 0.530423 0.499513
P_10 0.492344 0.473420 0.442600 0.460202 0.531505 0.655845
P_10 0.661023 0.757773 0.867591 0.986708 1.082768 1.137892
P_10 1.228795 1.300020 1.218928 1.232797 1.247211 1.204019
P_10 1.261988 1.190736 1.205952 1.171064 1.153315 1.206034
P_10 1.058620 1.219011 1.024812 1.143342 1.240200 1.155701
P_10 1.202525 1.157413 1.118208 1.161822 1.152988 1.086794
P_10 0.961505 1.038395 0.962628 0.878780 0.812503 0.751280
P_10 0.687664 0.656780 0.609279 0.541729 0.483066 0.536907
P_10 0.437579 0.458607 0.469905 0.452300 0.474951 0.521381
P_10 0.562343 0.626412 0.686589 0.788764 0.826510 0.924426
P_10 1.043751 1.059640 1.148755 1.124759 1.193770 1.223932
P_10 1.235112 1.282576 1.071781 1.014568 1.007394 1.059276
P_10 0.950123 1.040066 0.953575 1.009625 1.044720 1.006390
P_10 1.073954 1.146009 1.123609 1.141849 1.170596 1.075762
P_10 1.117124 1.070726 0.959693 0.894090 0.841872 0.752648
P_10 0.653732 0.607319 0.530492 0.471325 0.407911 0.367905
P_10 0.382616 0.397743 0.482075 0.510941 0.627271 0.801160
P_10 0.775231 0.829133 1.130017 1.116475 1.213201 1.299633
P_10 1.391189 1.377204 1.457986 1.437768 1.543283 1.407227
P_10 1.386628 1.258433 1.242178 1.162658 1.024927 1.024028
P_10 0.995737 0.988277 0.950877 0.962897 1.031523 1.012549
P_10 1.224859 1.078392 1.163646 1.240951 1.275064 1.194177
P_10 1.174342 1.221063 1.160965 1.036763 0.916669 0.825069
P_10 0.771129 0.617529 0.501568 0.489337 0.452983 0.385102
P_10 0.412150 0.433676 0.486443 0.578218 0.683843 0.704244
P_10 0.798980 0.980142 1.083104 1.150145 1.274569 1.320802
P_10 1.264611 1.396743 1.515952 1.324447 1.328488 1.282462
P_10 1.262381 1.202022 1.184600 1.176425 1.079891 1.104735
P_10 1.105292 1.107580 1.054185 0.998861 1.050710 0.968055
P_10 1.236853 1.201411 1.231887 1.248773 1.335251 1.311702
P_10 1.117831 1.180863 1.022074 0.974146 0.903814 0.834937
P_10 0.709367 0.657054 0.512457 0.490221 0.425052 0.388250
P_10 0.456419 0.462809 0.497482 0.590663 0.620087 0.812495
P_10 0.921279 0.922278 1.048636 1.128626 1.241357 1.250023
P_10 1.252364 1.282878 1.289891 1.449059 1.315871 1.260468
P_10 1.371596 1.278293 1.306487 1.229821 1.188629 1.086997
P_10 1.205796 1.038423 1.023780 1.026350 1.167163 1.114416
P_10 1.234853 1.158654 1.200147 1.231097 1.233583 1.191259
P_10 1.181639 1.036528 1.103190 0.983679 0.899553 0.831911
P_10 0.715800 0.711181 0.583828 0.494147 0.440440 0.413887
P_10 0.453879 0.435703 0.525781 0.579121 0.692225 0.780597
P_10 0.874696 1.019739 1.142588 1.128327 1.210420 1.275972
P_10 1.449747 1.369761 1.360176 1.387927 1.413249 1.396651
P_10 1.257696 1.209705 1.191585 1.218071 1.053485 1.025762
P_10 1.072642 1.010047 1.016160 1.161575 1.175787 1.136712
P_10 1.178287 1.192440 1.308490 1.197600 1.166486 1.351433
P_10 1.185600 1.222353 1.077387 1.026571 0.903890 0.881769
P_10 0.756689 0.666549 0.605832 0.467421 0.469805 0.480127
P_10 0.444157 0.480741 0.512076 0.669984 0.726694 0.768268
P_10 0.944393 1.195587 1.241630 1.172051 1.468507 1.382714
P_10 1.393767 1.465807 1.424958 1.324490 1.566870 1.427355
P_10 1.484747 1.278341 1.243726 1.351008 1.113134 1.137281
P_10 1.097979 1.072214 1.145849 1.122307 1.121213 1.116722
P_10 1.276645 1.206159 1.211035 1.230262 1.028263 1.244229
P_10 1.112340 1.032228 1.091720 0.951255 0.863323 0.822779
P_10 0.870718 0.732924 0.632334 0.535421 0.495651 0.523806
P_10 0.465728 0.494572 0.494578 0.525041 0.564584 0.612611
P_10 0.678802 0.795631 0.854115 1.022625 1.125770 1.119057
P_10 1.305813 1.381143 1.332060 1.365257 1.379667 1.382290
P_10 1.309157 1.259772 1.173223 1.203739 1.190942 1.196956
P_10 1.238588 1.164760 1.155132 1.172721 1.262265 1.161388
P_10 1.094179 1.214148 1.231200 1.238920 1.119575 1.169490
P_10 1.064542 0.993676 0.976505 0.904319 0.808502 0.776909
P_10 0.674985 0.668071 0.591668 0.592273 0.532010 0.488837
P_10 0.478384 0.483029 0.474822 0.497386 0.474602 0.530839
P_10 0.547221 0.647936 0.676113 0.778392 0.805501 0.939229
P_10 1.022000 1.124999 1.116859 1.094028 1.250431 1.210634
P_10 1.140220 1.133604 1.163790 1.185086 1.059010 1.069922
P_10 0.964026 0.981173 0.986699 1.062895 1.066059 1.033286
P_10 1.103542 1.141127 1.171759 1.167501 1.018583 1.056975
P_10 1.135799 1.114670 1.020465 0.891880 0.816981 0.765794
P_10 0.667347 0.610970 0.516327 0.443286 0.397888 0.373792
P_10 0.414179 0.405431 0.482210 0.546659 0.632335 0.763012
P_10 0.819124 0.903161 1.114310 1.175158 1.240096 1.403014
P_10 1.428046 1.483966 1.383490 1.408852 1.369239 1.426711
P_10 1.166728 1.192067 1.119333 1.196125 1.039444 1.053681
P_10 1.024241 1.058035 1.035450 1.001083 1.053630 1.072039
P_10 1.118954 1.076406 1.127750 1.279998 1.300480 1.140181
P_10 1.295895 1.219515 1.131701 1.084275 0.849232 0.856138
P_10 0.731592 0.606663 0.546771 0.470555 0.434449 0.416446
P_10 0.395802 0.465455 0.484940 0.559839 0.661500 0.719173
P_10 0.862122 0.964289 0.934919 1.100198 1.267754 1.290257
P_10 1.386678 1.394842 1.601211 1.367670 1.377612 1.266514
P_10 1.214492 1.200377 1.236617 1.232557 1.135112 1.114965
P_10 1.058668 1.011393 1.145567 1.037435 1.154618 1.022516
P_10 1.219770 1.185142 1.155405 1.254702 1.347766 1.261998
P_10 1.292566 1.226337 1.102551 1.004227 0.926447 0.845343
P_10 0.773531 0.657039 0.572548 0.469135 0.463842 0.416625
P_10 0.426341 0.489223 0.510237 0.607135 0.618572 0.803702
P_10 0.830348 1.009281 1.094717 1.104488 1.306521 1.334601
P_10 1.374402 1.400071 1.343327 1.358889 1.472722 1.425330
P_10 1.264284 1.329589 1.216045 1.258309 1.255667 1.165863
P_10 1.141048 1.119246 1.134560 1.040070 1.115664 1.128262
P_10 1.241293 1.201894 1.171207 1.303795 1.115332 1.169525
P_10 1.189013 1.324127 1.096290 1.049037 1.086931 0.885537
P_10 0.715461 0.654566 0.598638 0.539767 0.412939 0.468039
P_10 0.409334 0.451033 0.513167 0.614839 0.699219 0.759742
P_10 0.899302 0.990846 1.090472 1.232582 1.343383 1.311165
P_10 1.280796 1.409733 1.430825 1.367101 1.440900 1.350294
P_10 1.299844 1.161357 1.267474 1.269426 1.131638 1.145320
P_10 1.239575 1.070315 1.110673 1.129373 1.149757 1.258102
P_10 1.260918 1.235847 1.295445 1.149347 1.263654 1.197601
P_10 1.291347 1.199542 1.182688 1.013173 0.959257 0.887939
P_10 0.841710 0.645779 0.587800 0.587397 0.482140 0.462114
P_10 0.452923 0.440849 0.523567 0.633250 0.749671 0.916939
P_10 1.045191 1.178611 1.169009 1.294177 1.468085 1.482199
P_10 1.666165 1.609538 1.446659 1.723918 1.450597 1.438693
P_10 1.367706 1.361486 1.351177 1.165530 1.264082 1.264345
P_10 1.154609 1.112279 1.130414 1.180063 1.145364 1.276568
P_10 1.352265 1.364446 1.253149 1.247818 1.207949 1.215859
P_10 1.230790 1.183617 1.071544 1.049268 0.950287 0.920577
P_10 0.828515 0.766954 0.685666 0.616714 0.553304 0.494414