; Filename: networks/Net1.inp
; WNTR: 0.1.6
; Created: 2019-04-09 13:21:56
[TITLE]
EPANET Example Network 1
A simple example of modeling chlorine decay. Both bulk and
wall reactions are included.

[JUNCTIONS]
;ID                      Elevation       Demand Pattern                 
 10                               710               0                            ;
 11                               710               0                            ;
 12                               700               0                            ;
 13                               695               0                            ;
 21                               700               0                            ;
 22                               695               0                            ;
 23                               690               0                            ;
 31                               700               0                            ;
 32                               710               0                            ;

[RESERVOIRS]
;ID                                   Head                  Pattern
 9                                800                            ;

[TANKS]
;ID                              Elevation           Init Level            Min Level            Max Level             Diameter           Min Volume Volume Curve        
 2                                850             120             100             150            50.5               0                        ;

[PIPES]
;ID                   Node1                Node2                              Length             Diameter            Roughness           Minor Loss               Status
 10                   10                   11                             10530              18             100               0                 Open   ;
 11                   11                   12                              5280              14             100               0                 Open   ;
 12                   12                   13                              5280              10             100               0                 Open   ;
 21                   21                   22                              5280              10             100               0                 Open   ;
 22                   22                   23                              5280              12             100               0                 Open   ;
 31                   31                   32                              5280               6             100               0                 Open   ;
 110                  2                    12                               200              18             100               0                 Open   ;
 111                  11                   21                              5280              10             100               0                 Open   ;
 112                  12                   22                              5280              12             100               0                 Open   ;
 113                  13                   23                              5280               8             100               0                 Open   ;
 121                  21                   31                              5280               8             100               0                 Open   ;
 122                  22                   32                              5280               6             100               0                 Open   ;

[PUMPS]
;ID                   Node1                Node2                Properties          
 9                    9                    10                   HEAD     1                      ;

[VALVES]
;ID                   Node1                Node2                            Diameter Type              Setting           Minor Loss

[TAGS]
;type      name       tag       

[DEMANDS]
;ID        Demand     Pattern   
10         0.0        P_10      
11         150.0      P_11      
12         150.0      P_12      
13         100.0      P_13      
21         150.0      P_21      
22         200.0      P_22      
23         150.0      P_23      
31         100.0      P_31      
32         100.0      P_32      

[STATUS]
;ID        Setting   
[PATTERNS]
;ID        Multipliers

1 1.000000 1.200000 1.400000 1.600000 1.400000 1.200000
1 1.000000 0.800000 0.600000 0.400000 0.600000 0.800000

P_10 0.651318 0.633360 0.562624 0.558482 0.492502 0.530035
P_10 0.488161 0.525267 0.533274 0.582905 0.668579 0.731409
P_10 0.818065 0.823496 0.857546 0.918500 1.063002 1.063821
P_10 1.147536 1.168449 1.237790 1.199563 1.246848 1.205796
P_10 1.098029 1.103132 1.017607 0.981649 0.914464 0.963243
P_10 0.942350 0.973939 0.908343 0.887588 0.884213 0.929330
P_10 1.022364 0.949470 1.021439 1.024958 1.071036 1.009279
P_10 1.025401 0.931677 0.936342 0.863390 0.825146 0.790646
P_10 0.702212 0.742567 0.598006 0.558690 0.557093 0.531739
P_10 0.528626 0.535431 0.588723 0.582946 0.644639 0.715746
P_10 0.749244 0.927276 0.873389 0.892572 0.982604 1.064021
P_10 1.057028 1.121336 1.147561 1.202513 1.116688 1.127382
P_10 1.092520 1.048710 0.954877 1.022533 0.938992 0.954044
P_10 1.019843 0.864499 0.921440 0.876547 1.001947 1.023578
P_10 1.009211 1.014546 1.117118 0.942828 0.981290 1.002128
P_10 1.023106 1.004215 0.868878 0.994912 0.917988 0.820430
P_10 0.721287 0.674794 0.585020 0.524417 0.482691 0.509619
P_10 0.524854 0.499390 0.552655 0.611076 0.644191 0.754281
P_10 0.728925 0.925276 0.901711 1.006759 1.042354 1.185808
P_10 1.049883 1.174153 1.125274 1.143880 1.175803 1.153227
P_10 1.111751 1.121424 1.086606 1.027804 1.004751 1.104019
P_10 1.099742 1.006526 0.999097 1.059157 1.021470 1.018889
P_10 0.921627 1.087012 0.953934 1.022758 1.038479 0.959336
P_10 1.067518 0.946661 0.856638 0.962349 0.786482 0.881694
P_10 0.648368 0.661825 0.608603 0.549000 0.567150 0.523807
P_10 0.494921 0.542424 0.563499 0.646465 0.639545 0.790201
P_10 0.821255 0.976247 0.983154 0.986327 1.029073 1.096931
P_10 1.064459 1.174336 1.171610 1.084766 1.090976 1.098279
P_10 1.140526 0.996122 0.973538 0.997926 1.012798 0.941716
P_10 1.031429 0.936077 0.960695 1.027787 0.909634 0.972083
P_10 0.992700 1.056051 1.039622 1.079006 0.995568 1.093193
P_10 0.989512 1.062664 0.942235 0.903290 0.798081 0.700311
P_10 0.723514 0.700609 0.700307 0.586193 0.566692 0.552231
P_10 0.543789 0.560928 0.577542 0.660286 0.663456 0.823281
P_10 0.840242 0.993053 1.104273 1.086656 1.203811 1.136547
P_10 1.186429 1.286419 1.248333 1.208793 1.229020 1.232323
P_10 1.202419 1.060078 1.061933 1.040766 1.010795 1.032755
P_10 1.042442 0.968261 1.001478 0.976392 0.980539 1.082489
P_10 1.058978 1.077131 1.083061 1.021849 1.010370 0.999397
P_10 0.941617 0.907928 0.912733 0.861244 0.832575 0.785042
P_10 0.764762 0.663369 0.672653 0.645918 0.527525 0.600657
P_10 0.550211 0.549267 0.583084 0.616358 0.577763 0.661478
P_10 0.670816 0.724918 0.779230 0.910800 0.966141 0.931524
P_10 1.049999 1.075375 1.087057 1.141856 1.037775 1.155086
P_10 1.071389 1.095858 1.099113 1.019226 1.108236 1.017017
P_10 1.004311 1.018416 0.981887 1.023618 0.980312 0.980194
P_10 1.079203 0.974835 1.034314 1.017547 1.049548 0.939766
P_10 0.868002 0.847407 0.813865 0.830976 0.730312 0.733172
P_10 0.713187 0.663471 0.698636 0.618127 0.574166 0.590949
P_10 0.571882 0.530798 0.554709 0.576932 0.567277 0.618016
P_10 0.644276 0.711782 0.694447 0.802594 0.777302 0.807589
P_10 0.932450 0.989569 0.862379 1.030645 1.072468 0.976804
P_10 1.100227 1.101727 0.989126 1.000552 0.910133 1.055512
P_10 0.887223 0.884787 0.906754 0.999342 0.947726 0.870319
P_10 0.982094 1.013033 1.055891 0.974898 0.987183 0.905164
P_10 0.915710 0.935588 0.872052 0.784677 0.764677 0.705608
P_10 0.695536 0.624975 0.622099 0.577446 0.523072 0.502028
P_10 0.492454 0.554844 0.563261 0.627459 0.667967 0.717160
P_10 0.808708 0.883669 0.884365 0.962440 1.041623 1.085372
P_10 1.131420 1.220238 1.252908 1.196984 1.164170 1.229922
P_10 1.193455 1.115485 1.049357 0.976529 0.907628 0.919650
P_10 0.989443 0.963769 0.930110 0.924761 0.956434 0.985787
P_10 0.936008 0.988913 1.080703 1.020588 1.084159 1.037483
P_10 1.113972 1.045612 0.908197 0.917938 0.856258 0.796324
P_10 0.746882 0.661150 0.609574 0.573992 0.523177 0.543360
P_10 0.556807 0.528742 0.592077 0.652710 0.695850 0.702458
P_10 0.746711 0.852447 0.883954 0.985845 1.007648 1.137335
P_10 1.128067 1.132014 1.114652 1.179293 1.136956 1.124783
P_10 1.092428 1.096138 1.045587 0.939114 0.976348 0.993791
P_10 0.904491 1.020557 0.867508 0.935424 0.915885 0.998271
P_10 0.976052 1.054211 1.066109 1.065799 1.049723 1.063926
P_10 1.088118 0.957281 0.988655 0.923984 0.854565 0.787314
P_10 0.669849 0.646824 0.614596 0.589306 0.525901 0.540615
P_10 0.522350 0.571239 0.631584 0.585496 0.663005 0.758788
P_10 0.803464 0.862732 0.897802 1.107534 1.054561 1.102063
P_10 1.139101 1.209415 1.204129 1.152697 1.114376 1.089111
P_10 1.053316 0.988043 0.955139 1.088897 0.953265 0.958232
P_10 1.065379 0.882399 1.057683 1.007955 0.950222 1.036900
P_10 1.009294 1.064105 1.120232 1.031410 0.951250 1.036790
P_10 1.025535 1.058327 0.953209 0.994095 0.813834 0.827847
P_10 0.757915 0.713787 0.658445 0.626411 0.573409 0.540917
P_10 0.559169 0.553543 0.582709 0.578487 0.693191 0.823790
P_10 0.913363 0.824988 0.919040 0.947393 1.077071 1.118987
P_10 1.039207 1.230137 1.100741 1.141686 1.135274 1.083661
P_10 1.054196 0.987466 0.931956 1.034332 1.013190 1.027486
P_10 1.060995 0.976246 0.936739 0.964744 0.997389 1.030932
P_10 1.035855 1.027343 1.050703 1.046681 1.033099 0.992320
P_10 1.009371 1.023895 0.959433 0.917091 0.769153 0.810955
P_10 0.751743 0.696628 0.650350 0.599622 0.561030 0.556210
P_10 0.550915 0.551123 0.614791 0.682879 0.784083 0.778240
P_10 0.947990 0.832599 1.013224 1.058391 1.254795 1.204906
P_10 1.211590 1.278344 1.318276 1.248861 1.261120 1.161624
P_10 1.184206 1.118546 1.171899 1.102579 1.071816 1.038501
P_10 1.108893 1.019823 1.023273 1.045468 1.059238 0.978671
P_10 0.978777 1.042747 1.070479 1.116102 1.005918 0.942047
P_10 1.051966 1.010788 0.918327 0.993827 0.886463 0.850648
P_10 0.796962 0.677771 0.714199 0.655440 0.596379 0.560501
P_10 0.579358 0.571703 0.592383 0.581680 0.626897 0.667351
P_10 0.778205 0.774607 0.814942 0.848242 1.025048 0.955000
P_10 1.087846 0.991310 1.153577 1.139781 1.128122 1.202780
P_10 1.118394 1.212205 1.014122 1.035840 0.988142 1.075496
P_10 1.020347 1.047156 1.002318 1.097778 1.093289 1.029555
P_10 1.058539 1.047739 1.065471 0.956558 0.993211 0.957555
P_10 0.936928 0.926588 0.833065 0.835107 0.823869 0.736512
P_10 0.686267 0.684527 0.608564 0.625936 0.610117 0.594111
P_10 0.541138 0.542384 0.606748 0.547725 0.569580 0.662364
P_10 0.657843 0.673042 0.763255 0.722997 0.783072 0.896480
P_10 0.856832 0.888868 1.089016 0.962870 1.054037 1.057478
P_10 1.011289 1.052579 1.087221 1.056034 1.007306 1.056855
P_10 0.956781 1.021426 0.925058 0.931146 0.982608 0.958927
P_10 1.090116 1.038019 0.979199 1.000677 1.062675 0.973504
P_10 0.969297 0.931003 0.889195 0.784595 0.804782 0.773488
P_10 0.734758 0.634209 0.654970 0.565035 0.552835 0.515131
P_10 0.554752 0.565199 0.557149 0.620794 0.656149 0.697795
P_10 0.763667 0.929506 0.964729 0.983367 1.012221 1.053459
P_10 1.179822 1.046935 1.253491 1.169572 1.222642 1.285806
P_10 1.133658 1.084882 1.108415 1.000123 1.021744 0.932142
P_10 1.024170 0.902353 0.925686 0.930439 1.005090 0.918684
P_10 1.056658 0.925248 1.084508 1.115629 1.118229 1.066349
P_10 0.915400 1.064771 0.994611 0.869975 0.870428 0.783065
P_10 0.728442 0.712845 0.655989 0.561573 0.509810 0.541191
P_10 0.495381 0.552510 0.572806 0.641975 0.652167 0.693736
P_10 0.868750 0.864046 0.907259 0.978876 1.047199 1.121951
P_10 1.074144 1.126761 1.243535 1.106174 1.184835 1.156001
P_10 1.140831 0.982899 0.950468 1.052997 1.011362 1.094347
P_10 1.069698 0.959315 0.966465 0.956394 0.998333 0.974714
P_10 0.991372 0.959152 1.006264 1.135486 1.100272 1.128538
P_10 1.029962 1.126221 0.897960 0.933755 0.834275 0.719753
P_10 0.735363 0.658085 0.617114 0.569920 0.584358 0.590482
P_10 0.480410 0.615551 0.591509 0.648186 0.747889 0.681007
P_10 0.822984 0.917589 0.980435 1.023497 1.086429 1.061253
P_10 1.057982 1.194956 1.308893 1.153312 1.148743 1.145582
P_10 1.143150 1.065846 1.130892 1.067468 1.018516 0.961973
P_10 0.988134 0.992964 1.019151 0.896660 1.029253 1.016762
P_10 1.020494 1.065444 1.071030 1.115867 1.133394 1.050839
P_10 1.091442 1.085554 0.921108 1.015732 0.914088 0.797920
P_10 0.723310 0.697649 0.626648 0.534059 0.516062 0.546095
P_10 0.562063 0.595268 0.551685 0.673344 0.639534 0.773554
P_10 0.840619 0.909745 0.955315 1.019837 1.132223 1.125744
P_10 1.168915 1.236149 1.097126 1.184521 1.135295 1.208909
P_10 1.121297 1.065105 1.020700 1.129542 1.043678 1.100003
P_10 1.015713 1.003217 0.989034 1.009415 1.051770 1.066677
P_10 1.033994 1.109707 1.039876 1.010889 1.113998 1.087490
P_10 1.012583 1.111850 0.970239 0.844584 0.963450 0.824561
P_10 0.768328 0.715900 0.629365 0.667270 0.600427 0.516133
P_10 0.592661 0.580221 0.630368 0.710988 0.737307 0.855825
P_10 0.894035 1.053337 1.146802 1.165908 1.132030 1.310609
P_10 1.185191 1.333472 1.248493 1.298807 1.297545 1.246050
P_10 1.194139 1.134401 1.275352 1.084604 1.109834 1.110945
P_10 1.011190 1.068608 1.065042 1.153779 1.105506 1.098075
P_10 1.018409 1.068945 1.068468 1.137791 1.057780 1.020806
P_10 1.045598 0.957126 1.041753 0.910309 0.836722 0.872027
P_10 0.850307 0.736976 0.702856 0.615610 0.608673 0.558549
P_10 0.541032 0.588089 0.615322 0.632847 0.553965 0.664379
P_10 0.686057 0.818962 0.828792 0.856553 0.981149 0.954911
P_10 0.999210 1.091666 1.210415 1.093651 1.181170 1.067344
P_10 1.243663 1.053571 1.158660 1.170472 1.053745 1.135617
P_10 1.035581 1.067830 1.063365 0.962289 1.139043 1.049683
P_10 1.067903 1.102958 0.996732 1.072399 1.031755 0.919137
P_10 1.002415 0.847797 0.926335 0.881756 0.682624 0.788817
P_10 0.711455 0.676646 0.719911 0.653615 0.598992 0.614818
P_10 0.585828 0.536883 0.516608 0.564657 0.593101 0.589787
P_10 0.628288 0.671497 0.745229 0.745216 0.807004 0.934481
P_10 0.983421 0.949095 0.976147 1.089983 1.034894 1.060814
P_10 1.063073 1.197038 1.019758 1.065215 0.968102 0.976062
P_10 1.087740 0.983856 1.069437 0.969179 0.910883 0.989493
P_10 0.987437 0.919330 0.967295 1.031296 0.995817 0.876737
P_10 1.077934 0.980412 0.942804 0.868523 0.855847 0.816124
P_10 0.720834 0.696036 0.601726 0.528668 0.589996 0.484775
P_10 0.511899 0.597021 0.638743 0.644691 0.669845 0.659350
P_10 0.778337 0.885446 0.971475 0.973570 1.129986 1.193774
P_10 1.172763 1.191513 1.312075 1.153096 1.119683 1.199595
P_10 1.228077 1.151102 1.138765 1.045699 0.890845 0.969637
P_10 0.926919 0.872370 0.928451 1.007724 1.018394 0.978543
P_10 0.970037 0.976909 1.024218 1.116860 1.097508 1.135535
P_10 1.063275 1.022054 0.946305 0.911956 0.896716 0.816260
P_10 0.744331 0.659656 0.588757 0.612666 0.600472 0.556010
P_10 0.512411 0.547920 0.627333 0.676211 0.690697 0.724675
P_10 0.758384 0.925844 0.933965 1.076422 1.109204 0.993723
P_10 1.112165 1.148085 1.144274 1.244131 1.245899 1.145754
P_10 1.192656 1.141323 1.074613 0.982159 0.980177 0.987339
P_10 1.012747 1.018815 1.013230 1.048696 0.990772 1.013997
P_10 1.079225 1.149836 1.078689 1.147358 1.046119 1.130351
P_10 1.109249 1.124916 1.040456 0.908998 0.893610 0.767239
P_10 0.747305 0.752485 0.626449 0.585807 0.540882 0.566559
P_10 0.577837 0.616386 0.591378 0.711319 0.662110 0.746872
P_10 0.779451 0.898005 0.991891 1.025002 1.085933 1.127052
P_10 1.191508 1.189601 1.113554 1.182170 1.222365 1.218181
P_10 1.091013 1.241853 1.101164 1.095478 0.969283 1.085634
P_10 1.041424 1.142178 1.017398 1.060072 1.044251 1.120241
P_10 1.064446 1.112835 1.142031 1.141817 1.106546 1.132929
P_10 1.071190 1.033083 1.010667 0.956054 0.825839 0.843698
P_10 0.776875 0.774356 0.624701 0.587487 0.599135 0.527592
P_10 0.531525 0.538790 0.576399 0.684022 0.744006 0.744993
P_10 0.874964 0.963788 0.948632 1.010478 1.169793 1.195214
P_10 1.157643 1.284237 1.282440 1.196822 1.107151 1.171518
P_10 1.168662 1.064249 1.033438 1.106320 1.044669 1.015006
P_10 1.070422 0.978524 1.070890 0.991807 1.076431 1.131327
P_10 1.084835 1.156424 1.128578 1.199063 1.078955 1.049843
P_10 1.145899 1.160880 1.017546 0.893350 0.903244 0.818850
P_10 0.737785 0.719545 0.677729 0.635072 0.557401 0.536852
P_10 0.618558 0.601637 0.680611 0.659550 0.809414 0.918096
P_10 0.941421 1.034087 1.109647 1.243617 1.199228 1.292288
P_10 1.398347 1.324356 1.373956 1.302367 1.301786 1.252602
P_10 1.276116 1.192801 1.198814 1.184476 1.141225 1.006913
P_10 1.045278 1.034734 0.999427 1.081004 1.119687 1.123294
P_10 1.037337 1.152688 1.215890 1.177739 1.096765 1.030529
P_10 1.041668 0.935678 1.029014 0.955437 0.965487 0.756098
P_10 0.787436 0.746861 0.710621 0.660866 0.661748 0.633710
P_10 0.578317 0.592833 0.604228 0.630615 0.657172 0.727820
P_10 0.732388 0.794306 0.806486 0.903735 0.950155 1.067841
P_10 1.119617 1.084567 1.198264 1.075934 1.184208 1.134428
P_10 1.063040 1.115689 1.155969 1.041930 1.088335 1.103789
P_10 1.177478 1.070114 1.085676 1.076859 1.059464 1.070167
P_10 1.040170 1.037624 1.040394 1.076484 1.046807 0.959044
P_10 0.881487 0.920082 0.937723 0.871299 0.836457 0.802670
P_10 0.730801 0.745005 0.679060 0.640640 0.606853 0.586529
P_10 0.567238 0.556067 0.588539 0.609125 0.611270 0.660568
P_10 0.614892 0.701248 0.741583 0.847209 0.839845 0.923794
P_10 0.986251 0.991793 0.989894 0.999008 1.125724 1.082327
P_10 1.110061 1.182658 1.023736 1.101144 1.131205 1.006514
P_10 1.023107 0.943203 0.997176 1.050877 1.015947 1.054243
P_10 0.960086 1.141703 1.010407 1.125276 1.011031 1.162208
P_10 1.044876 1.008937 0.936358 0.924643 0.832548 0.803248
P_10 0.806052 0.628419 0.643685 0.557195 0.582656 0.554675
P_10 0.504729 0.598836 0.599749 0.618351 0.641531 0.803524
P_10 0.795404 0.942055 0.952584 1.041553 1.100230 1.236993
P_10 1.133613 1.178346 1.289873 1.360855 1.329692 1.319376
P_10 1.221452 1.297973 1.097227 1.078364 1.060240 1.013159
P_10 0.949958 0.985621 0.872938 0.959402 0.957358 0.984434
P_10 1.018367 1.013683 1.179385 1.147967 0.996988 1.106439
P_10 1.083787 1.186710 1.056548 0.931479 0.906940 0.866047
P_10 0.806354 0.655112 0.648689 0.589194 0.587577 0.560987
P_10 0.520839 0.591072 0.622981 0.616197 0.741996 0.797848
P_10 0.876484 0.849118 0.950191 0.986011 1.078122 1.153678
P_10 1.199049 1.124714 1.236124 1.074252 1.302802 1.258381
P_10 1.244428 1.060930 1.145795 1.134111 1.013615 0.976329
P_10 0.941735 1.061425 0.993430 0.947043 1.051096 1.014701
P_10 1.042232 1.191184 1.183532 1.175175 1.116462 1.127836
P_10 1.117701 1.080121 0.906211 0.879403 0.921519 0.748071
P_10 0.718114 0.688016 0.669267 0.661808 0.564842 0.579598
P_10 0.561514 0.557494 0.579417 0.664164 0.715391 0.808159
P_10 0.904929 0.979767 1.106442 1.090279 0.977435 1.056451
P_10 1.235663 1.248378 1.226428 1.106263 1.328434 1.164419
P_10 1.101202 1.204112 1.238207 1.093707 1.064748 1.065283
P_10 1.084424 1.075270 1.118557 1.121578 1.110432 1.129060
P_10 1.108587 1.072736 1.057555 1.201891 1.087164 1.099060
P_10 1.147356 1.086993 1.031264 1.042475 1.000350 0.850189
P_10 0.857503 0.626530 0.660261 0.574797 0.588058 0.520732
P_10 0.541484 0.637127 0.639862 0.645372 0.758966 0.791875
P_10 0.859453 0.894216 1.008820 1.074177 1.070403 1.211202
P_10 1.221414 1.170923 1.198405 1.151355 1.367921 1.270722
P_10 1.105397 1.110454 1.036960 1.045721 0.955903 1.024549
P_10 1.117622 1.093522 1.007404 1.099374 1.113299 1.055958
P_10 1.044931 1.143560 1.142966 1.206028 1.162981 1.165130
P_10 1.170487 1.024214 0.971251 0.892426 0.927246 0.891401
P_10 0.798993 0.689709 0.693125 0.645168 0.686485 0.562208
P_10 0.610365 0.583268 0.638801 0.814604 0.823256 0.820495
P_10 1.069413 0.989200 1.100056 1.185716 1.233718 1.284701
P_10 1.321442 1.352152 1.342447 1.305346 1.233731 1.178120
P_10 1.304013 1.190184 1.076397 1.147983 1.094162 1.018569
P_10 1.008102 0.998527 1.101342 1.118116 1.151688 1.163989
P_10 1.027587 1.127818 1.088337 1.127372 1.004658 1.107362
P_10 1.050567 0.999277 0.932621 0.969239 0.917350 0.888560
P_10 0.913026 0.756346 0.736799 0.696788 0.695890 0.628931
P_10 0.645529 0.577586 0.610760 0.645491 0.696956 0.732631
P_10 0.689211 0.778395 0.929949 0.954685 0.980260 1.054121
P_10 1.070570 1.162301 1.191044 1.180452 1.115362 1.268737
P_10 1.109616 1.237799 1.221621 1.114023 1.098088 1.107896
P_10 1.105387 1.048945 1.052275 1.121210 1.111654 1.092428
P_10 1.152697 1.040298 1.107832 1.061478 0.998595 1.008880
P_10 0.961834 1.065573 0.905905 0.945119 0.846991 0.829089
P_10 0.775514 0.714925 0.712024 0.698696 0.611699 0.635496
P_10 0.566940 0.650786 0.599215 0.579623 0.664390 0.654834
P_10 0.640411 0.741934 0.782390 0.835806 0.880619 0.882283
P_10 0.910720 0.949914 1.065301 1.026337 0.914360 0.998208
P_10 1.186781 1.030406 1.169976 1.054653 1.010565 1.155692
P_10 0.996951 0.968703 1.052899 1.022907 1.109310 0.987662
P_10 1.200273 1.007110 1.130606 1.074311 1.059971 1.035689
P_10 1.101088 0.965916 0.907845 0.940691 0.860068 0.837302
P_10 0.709067 0.550720 0.707359 0.613244 0.589443 0.590417
P_10 0.517341 0.578484 0.624593 0.661375 0.742637 0.835371
P_10 0.827840 0.934005 1.047081 0.974167 1.130697 1.156386
P_10 1.187508 1.147287 1.323020 1.344545 1.309708 1.325006
P_10 1.291129 1.144614 1.180817 1.149738 1.003945 1.086779
P_10 1.064269 0.965125 1.026810 1.097520 1.035840 1.007817
P_10 1.030835 1.068118 1.185301 1.157279 1.119903 1.156969
P_10 0.965155 0.962482 1.089282 0.992809 0.908313 0.768924
P_10 0.753702 0.693969 0.669894 0.604895 0.572163 0.606425
P_10 0.624800 0.571240 0.590735 0.637220 0.707260 0.738644
P_10 0.895393 0.923203 0.988781 1.028393 1.134241 1.160113
P_10 1.175438 1.250623 1.356324 1.151098 1.170236 1.204491
P_10 1.179445 1.110080 1.148724 1.117062 1.104095 0.997435
P_10 1.090449 1.066846 1.057793 1.036788 1.121645 1.092383
P_10 1.109342 1.093015 1.087876 1.243932 1.162613 1.206135
P_10 1.182754 1.136614 1.059962 0.909070 0.908972 0.864068
P_10 0.783212 0.717715 0.707835 0.612790 0.550555 0.566925
P_10 0.599587 0.629971 0.615578 0.712070 0.720322 0.814763
P_10 0.873904 0.907385 1.082911 1.041397 1.098701 1.156418
P_10 1.227587 1.196069 1.264612 1.257691 1.176766 1.219024
P_10 1.276973 1.156453 1.171859 1.164461 1.132039 1.223424
P_10 1.070388 1.094049 1.066362 1.038515 1.081826 1.061713
P_10 1.103474 1.095476 1.193587 1.164882 1.115575 1.067293
P_10 1.066107 1.006303 1.058034 0.944029 0.942439 0.896209
P_10 0.777247 0.763379 0.651971 0.603413 0.574981 0.588824
P_10 0.575054 0.571041 0.640595 0.772226 0.851240 0.866056
P_10 0.877618 0.974487 1.089086 1.122901 1.086248 1.123472
P_10 1.174555 1.248056 1.220507 1.322333 1.208969 1.173794
P_10 1.230286 1.143004 1.151712 1.188498 1.002042 1.184133
P_10 1.065406 1.115873 1.063821 1.016688 1.187150 1.044740
P_10 1.146901 1.059448 1.206141 1.189354 1.136071 1.127952
P_10 1.140083 1.070883 1.076347 0.969261 0.993010 0.833887
P_10 0.878752 0.862650 0.722020 0.689162 0.600912 0.595725
P_10 0.620270 0.643916 0.693719 0.759628 0.881032 0.860544
P_10 0.999518 1.007218 1.203425 1.196842 1.337020 1.285838
P_10 1.294603 1.369942 1.413863 1.368566 1.395293 1.327500
P_10 1.346909 1.262311 1.144367 1.163431 1.134348 1.106950
P_10 1.110915 1.120626 1.203427 1.240331 1.106250 1.260203
P_10 1.180762 1.112531 1.196894 1.109694 1.136956 1.150784
P_10 1.081764 1.022083 1.016927 0.991723 0.918272 0.891085
P_10 0.792450 0.745850 0.791922 0.668312 0.627694 0.673966
P_10 0.610545 0.644538 0.557991 0.660895 0.660235 0.710369
P_10 0.725914 0.882540 0.840300 0.948110 0.979671 1.056749
P_10 1.154737 1.179624 1.277359 1.136292 1.220583 1.191349
P_10 1.193969 1.162970 1.217798 1.115860 1.034910 1.096528
P_10 1.112120 1.143767 1.144523 1.050293 1.129746 1.073904
P_10 0.965561 1.232445 1.070633 0.989540 1.088241 0.997919
P_10 0.964553 0.943500 0.960868 0.902670 0.848801 0.783144
P_10 0.782899 0.732947 0.705666 0.694896 0.666062 0.596864
P_10 0.591291 0.623539 0.612628 0.672142 0.674784 0.621972
P_10 0.674310 0.761779 0.784436 0.796088 0.913794 0.947159
P_10 1.015555 1.080329 1.107869 1.017907 1.182735 1.170285
P_10 1.109913 1.169147 1.211363 1.031449 1.091946 1.045006
P_10 1.050923 1.127671 1.049466 1.072589 1.163492 0.978228
P_10 1.037359 1.118897 1.110337 1.109303 1.071128 1.031680
P_10 1.134665 1.021990 1.007343 0.948143 0.825473 0.794519
P_10 0.789257 0.752370 0.622705 0.565292 0.615585 0.549137
P_10 0.614285 0.545854 0.636615 0.746795 0.705020 0.768337
P_10 0.906228 1.069762 1.045515 1.064191 1.104587 1.248064
P_10 1.369963 1.359232 1.252567 1.313669 1.378901 1.236508
P_10 1.330936 1.351954 1.172522 1.026461 1.093801 1.069742
P_10 1.123096 0.987311 0.927391 1.100020 1.053718 0.992700
P_10 1.019813 1.161221 1.185539 1.308387 1.107865 1.249752
P_10 1.098169 1.133043 1.028210 0.964742 0.961272 0.787712
P_10 0.771600 0.678733 0.684114 0.682264 0.591034 0.576400
P_10 0.560427 0.571954 0.649341 0.704730 0.709262 0.833635
P_10 0.838537 0.888631 1.024656 1.109178 1.133565 1.271599
P_10 1.347039 1.169738 1.314463 1.262907 1.341157 1.285031
P_10 1.241649 1.122656 1.017831 1.093096 1.149358 1.011604
P_10 0.958818 1.002860 0.989293 1.105622 0.938018 1.082685
P_10 1.088331 1.162518 1.210320 1.354963 1.391406 1.186634
P_10 1.078912 1.071328 1.193551 1.139510 0.995173 0.934197
P_10 0.738186 0.768409 0.726074 0.653183 0.588373 0.603831
P_10 0.612175 0.613857 0.653137 0.723633 0.698938 0.825171
P_10 0.858564 0.949020 1.051363 1.212973 1.069636 1.249046
P_10 1.317318 1.364318 1.193583 1.318524 1.310462 1.330543
P_10 1.329796 1.149192 1.267913 1.224988 1.173499 1.109677
P_10 1.035934 1.149451 1.117972 1.055724 1.072384 1.121189
P_10 1.149416 1.112235 1.205777 1.200315 1.228416 1.127156
P_10 1.176754 1.071585 1.080225 0.928801 0.950314 0.843557
P_10 0.876749 0.759852 0.649582 0.620669 0.610982 0.519781
P_10 0.567974 0.654433 0.664181 0.729442 0.746005 0.835844
P_10 0.935729 1.045347 1.000513 1.194482 1.151579 1.232055
P_10 1.255841 1.184568 1.174318 1.299397 1.223545 1.135343
P_10 1.223983 1.157503 1.154848 1.088689 1.105167 1.043586
P_10 1.138354 1.125366 1.080749 1.111316 1.040508 1.108387
P_10 1.232355 1.217570 1.095986 1.123034 1.136870 1.162605
P_10 1.079920 1.083260 1.042757 1.046879 0.852946 0.951546
P_10 0.813704 0.741221 0.770533 0.660726 0.626231 0.598252
P_10 0.656758 0.671041 0.664341 0.751352 0.858917 0.903004
P_10 1.043434 1.097062 1.212594 1.246708 1.367660 1.409554
P_10 1.488325 1.294534 1.390892 1.422909 1.360116 1.529512
P_10 1.340630 1.288896 1.225774 1.216418 1.193160 1.153437
P_10 1.109333 1.203695 1.143594 1.131541 1.128316 1.148031
P_10 1.130976 1.147764 1.141035 1.121346 1.230289 1.167939
P_10 1.225158 0.995813 0.902464 1.087803 0.898798 0.801114
P_10 0.865335 0.815688 0.739182 0.699363 0.715500 0.643660
P_10 0.643343 0.625967 0.672599 0.601819 0.682442 0.800613
P_10 0.845588 0.787955 0.989599 0.987755 1.011637 1.154145
P_10 1.018815 1.098230 1.226731 1.327850 1.249941 1.248444
P_10 1.174750 1.108499 1.267316 1.215342 1.119580 1.189547
P_10 1.066187 1.234383 1.138712 1.062198 1.197388 1.232557
P_10 1.152882 1.133690 1.059099 1.039048 1.144118 1.003656
P_10 1.091953 1.047635 0.931405 0.997303 0.871595 0.787740
P_10 0.855061 0.765574 0.743038 0.739072 0.684599 0.640224
P_10 0.647297 0.569066 0.630491 0.582033 0.612141 0.657472
P_10 0.634272 0.755473 0.780550 0.857077 0.870278 0.971132
P_10 1.055934 1.109060 1.102635 1.032427 1.102042 1.123947
P_10 1.188849 1.208131 1.128161 1.164281 1.055614 1.097748
P_10 1.024891 0.972375 1.001376 1.105842 1.020333 1.121302
P_10 1.112792 1.007734 1.089033 1.145172 1.012785 1.155029
P_10 1.016360 0.970748 1.001704 0.957939 0.923224 0.846654
P_10 0.766614 0.695321 0.675943 0.566761 0.540073 0.518926
P_10 0.579777 0.587671 0.613271 0.642587 0.711336 0.739905
P_10 0.870724 0.923448 1.057078 1.116448 1.191120 1.179467
P_10 1.374968 1.347601 1.390810 1.334103 1.336983 1.338579
P_10 1.270886 1.206834 1.171903 1.132209 1.078300 1.007577
P_10 1.009267 1.073343 0.975365 1.010444 1.057667 1.111092
P_10 1.125207 1.003675 1.110652 1.173825 1.182002 1.141642
P_10 1.193603 1.132907 1.007911 1.010488 0.921372 0.897725
P_10 0.876508 0.780422 0.649227 0.626136 0.607557 0.578808
P_10 0.589647 0.615489 0.643141 0.710830 0.724265 0.853289
P_10 0.904766 0.965492 1.041226 1.059894 1.188826 1.151927
P_10 1.145489 1.432831 1.312562 1.223672 1.266849 1.276322
P_10 1.308283 1.118622 1.064688 1.132868 1.097495 0.970852
P_10 1.080068 1.070704 1.095340 1.019682 1.173805 1.111181
P_10 1.239752 1.272195 1.218973 1.225153 1.230829 1.133925
P_10 1.147486 1.163112 1.045575 1.056636 0.888435 0.766912
P_10 0.842089 0.729698 0.646401 0.615498 0.574561 0.605929
P_10 0.627064 0.639445 0.674024 0.672516 0.744277 0.814473
P_10 0.930175 0.971427 1.122903 1.200258 1.318232 1.224662
P_10 1.246024 1.401130 1.249026 1.335423 1.225682 1.237905
P_10 1.268986 1.208375 1.176289 1.205316 1.154531 1.199239
P_10 1.096591 1.166790 1.091107 1.124413 1.103823 1.089236
P_10 1.114019 1.192786 1.194244 1.134585 1.179774 1.177595
P_10 1.081550 1.222773 1.114561 1.017508 1.007417 0.871900
P_10 0.766530 0.776369 0.712851 0.620471 0.577991 0.609642
P_10 0.657421 0.537587 0.645673 0.746169 0.762185 0.934233
P_10 0.996272 1.060291 1.046526 1.173864 1.237996 1.260668
P_10 1.191400 1.343427 1.272977 1.287938 1.387164 1.176225
P_10 1.186493 1.206600 1.257758 1.145663 1.106172 1.115116
P_10 1.186631 1.076321 1.026645 1.128558 1.098102 1.182436
P_10 1.119457 1.265039 1.086914 1.173825 1.270264 1.252773
P_10 1.243451 1.167196 1.070322 1.085996 1.056316 0.858261
P_10 0.893203 0.737840 0.735478 0.698749 0.604266 0.622692
P_10 0.610645 0.667836 0.726028 0.782366 0.907928 0.847772
P_10 0.995659 1.168881 1.218563 1.198567 1.417879 1.460935
P_10 1.535648 1.476598 1.343934 1.428668 1.438529 1.234477
P_10 1.349207 1.372878 1.279562 1.214633 1.168856 1.040344
P_10 1.078756 1.150272 1.153906 1.145953 1.183655 1.138908
P_10 1.092716 1.162827 1.262507 1.166070 1.223207 1.181169
P_10 1.196042 1.055518 1.054377 1.104385 1.012436 0.879448
P_10 0.885946 0.745248 0.816271 0.729708 0.653464 0.706116