; Filename: networks/Net1.inp
; WNTR: 0.1.6
; Created: 2019-04-09 13:26:23
[TITLE]
EPANET Example Network 1
A simple example of modeling chlorine decay. Both bulk and
wall reactions are included.

[JUNCTIONS]
;ID                      Elevation       Demand Pattern                 
 10                               710               0                            ;
 11                               710               0                            ;
 12                               700               0                            ;
 13                               695               0                            ;
 21                               700               0                            ;
 22                               695               0                            ;
 23                               690               0                            ;
 31                               700               0                            ;
 32                               710               0                            ;

[RESERVOIRS]
;ID                                   Head                  Pattern
 9                                800                            ;

[TANKS]
;ID                              Elevation           Init Level            Min Level            Max Level             Diameter           Min Volume Volume Curve        
 2                                850             120             100             150            50.5               0                        ;

[PIPES]
;ID                   Node1                Node2                              Length             Diameter            Roughness           Minor Loss               Status
 10                   10                   11                             10530              18             100               0                 Open   ;
 11                   11                   12                              5280              14             100               0                 Open   ;
 12                   12                   13                              5280              10             100               0                 Open   ;
 21                   21                   22                              5280              10             100               0                 Open   ;
 22                   22                   23                              5280              12             100               0                 Open   ;
 31                   31                   32                              5280               6             100               0                 Open   ;
 110                  2                    12                               200              18             100               0                 Open   ;
 111                  11                   21                              5280              10             100               0                 Open   ;
 112                  12                   22                              5280              12             100               0                 Open   ;
 113                  13                   23                              5280               8             100               0                 Open   ;
 121                  21                   31                              5280               8             100               0                 Open   ;
 122                  22                   32                              5280               6             100               0                 Open   ;

[PUMPS]
;ID                   Node1                Node2                Properties          
 9                    9                    10                   HEAD     1                      ;

[VALVES]
;ID                   Node1                Node2                            Diameter Type              Setting           Minor Loss

[TAGS]
;type      name       tag       

[DEMANDS]
;ID        Demand     Pattern   
10         0.0        P_10      
11         150.0      P_11      
12         150.0      P_12      
13         100.0      P_13      
21         150.0      P_21      
22         200.0      P_22      
23         150.0      P_23      
31         100.0      P_31      
32         100.0      P_32      

[STATUS]
;ID        Setting   
[PATTERNS]
;ID        Multipliers

1 1.000000 1.200000 1.400000 1.600000 1.400000 1.200000
1 1.000000 0.800000 0.600000 0.400000 0.600000 0.800000

P_10 0.669403 0.619081 0.464310 0.436690 0.402805 0.433965
P_10 0.426691 0.451422 0.469522 0.525578 0.592904 0.673130
P_10 0.730489 0.835640 0.930591 1.108861 1.129151 1.191405
P_10 1.202924 1.282271 1.300619 1.312979 1.261385 1.094015
P_10 1.089795 1.207717 1.063805 0.991431 0.988530 0.914600
P_10 0.897167 0.844828 0.836132 0.944512 0.954249 0.953175
P_10 0.987968 1.033858 1.109656 1.066859 1.022448 0.969553
P_10 1.003300 0.972002 0.942990 0.853056 0.724982 0.718923
P_10 0.661012 0.557391 0.516776 0.424574 0.393970 0.431808
P_10 0.416601 0.423089 0.459757 0.530695 0.596628 0.605484
P_10 0.751000 0.947468 0.962249 1.006497 1.056608 1.107999
P_10 1.134417 1.152578 1.255755 1.276786 1.143975 1.222809
P_10 1.134157 1.060586 1.045749 0.985475 0.870702 0.956544
P_10 0.879187 0.901837 0.895300 0.907518 1.009979 0.960080
P_10 0.958386 1.073928 1.118686 1.089683 1.117837 1.050903
P_10 1.011299 1.024485 0.995476 0.887421 0.778721 0.667370
P_10 0.595300 0.534699 0.520476 0.468477 0.422736 0.406253
P_10 0.455553 0.444343 0.517769 0.577238 0.613157 0.714262
P_10 0.774341 0.827136 0.944108 0.968750 1.184282 1.044457
P_10 1.174595 1.139268 1.150592 1.315069 1.322873 1.194461
P_10 1.192165 1.138013 1.056736 1.080804 0.995469 0.947925
P_10 1.028524 0.987719 0.976076 0.940298 0.971799 1.028326
P_10 0.967232 1.036545 1.049517 0.960700 1.034015 1.080120
P_10 1.022460 1.058581 0.926877 0.874694 0.808627 0.815591
P_10 0.694813 0.577448 0.500310 0.454405 0.428939 0.409713
P_10 0.440298 0.401667 0.494984 0.506389 0.588715 0.761594
P_10 0.796830 0.941430 0.948445 1.037612 1.115039 1.200809
P_10 1.214992 1.123430 1.181850 1.203781 1.199593 1.159622
P_10 1.047978 1.030556 1.039158 1.025142 0.857101 0.924486
P_10 0.990206 0.843439 0.949346 0.953779 0.979635 0.934149
P_10 0.964237 0.920842 0.972066 1.109744 1.115260 0.897116
P_10 0.977114 0.910833 0.925749 0.837050 0.775241 0.737806
P_10 0.678968 0.604774 0.536187 0.485571 0.444349 0.411335
P_10 0.452806 0.452274 0.470888 0.653775 0.688947 0.754109
P_10 0.827426 0.972993 1.072459 1.072586 1.363718 1.322855
P_10 1.401965 1.329089 1.470345 1.267105 1.174171 1.315474
P_10 1.200467 1.187882 1.016866 0.962326 0.994688 1.039960
P_10 1.067201 1.062624 1.011562 1.024873 0.943614 1.036098
P_10 1.049942 1.006204 1.049574 1.070366 1.025981 1.000899
P_10 1.071306 0.869938 0.858290 0.883193 0.819062 0.753984
P_10 0.638989 0.620144 0.560182 0.544172 0.503763 0.484285
P_10 0.476691 0.494828 0.483785 0.529041 0.580163 0.613878
P_10 0.671217 0.734446 0.843191 0.805395 0.986967 0.980077
P_10 1.060473 1.096425 1.139188 1.094529 1.065635 1.079133
P_10 1.184954 1.143127 1.135958 0.989624 1.030316 1.060448
P_10 0.918771 1.076068 0.989843 1.074333 1.019451 1.021201
P_10 0.989454 1.010646 0.989618 0.997933 1.051907 0.970434
P_10 0.791841 0.881198 0.830637 0.827773 0.718293 0.682234
P_10 0.629002 0.594206 0.547075 0.529895 0.482873 0.427053
P_10 0.432540 0.488290 0.470823 0.448387 0.502108 0.492779
P_10 0.550248 0.604867 0.591399 0.739872 0.802337 0.784409
P_10 0.960979 1.033103 1.120467 1.114973 1.042912 1.127525
P_10 1.101806 1.026789 1.047495 1.073903 0.954635 1.020345
P_10 1.007579 0.998675 0.953741 0.912457 0.902344 0.891795
P_10 0.957948 0.948359 0.867364 1.059199 0.919240 0.965452
P_10 0.940660 0.952506 0.933954 0.718634 0.750151 0.706070
P_10 0.568696 0.575450 0.534654 0.491517 0.402866 0.437106
P_10 0.427273 0.433325 0.496890 0.551738 0.620479 0.668361
P_10 0.740641 0.902156 0.966866 1.064307 1.171507 1.159862
P_10 1.277189 1.384579 1.313018 1.304845 1.356184 1.216213
P_10 1.237421 1.166284 1.005488 1.055551 0.946354 0.956974
P_10 0.944083 0.908662 0.931804 0.911601 0.903554 0.962157
P_10 0.935938 0.967697 1.045611 1.052798 1.082196 1.091288
P_10 1.116858 0.940979 0.913432 0.912463 0.807434 0.767013
P_10 0.620176 0.649764 0.449593 0.461520 0.455218 0.393935
P_10 0.433955 0.438683 0.473923 0.536269 0.619767 0.672002
P_10 0.774908 0.774790 0.955642 1.007171 1.089407 1.120679
P_10 1.258694 1.182545 1.189015 1.212540 1.261569 1.201144
P_10 1.114248 1.091328 1.055419 1.037997 0.918664 0.924981
P_10 0.899217 0.957968 0.972334 0.945807 0.901858 0.947244
P_10 0.997489 0.984295 1.044697 1.101835 1.018511 1.066660
P_10 1.051562 1.075023 0.974164 0.868167 0.817059 0.702025
P_10 0.610623 0.621771 0.543365 0.464587 0.416137 0.436007
P_10 0.438803 0.475971 0.512502 0.634995 0.621557 0.714241
P_10 0.776794 0.846776 1.005651 1.121186 1.211451 1.177357
P_10 1.252476 1.143944 1.186161 1.234422 1.206387 1.199994
P_10 1.064738 1.150482 1.085769 1.083748 1.001355 1.030813
P_10 0.998386 1.016432 0.978308 0.982504 1.113243 1.052998
P_10 0.982810 1.076521 1.028105 0.997256 1.035405 0.994736
P_10 1.032305 0.987337 0.982568 0.810442 0.866747 0.697908
P_10 0.741050 0.572450 0.508238 0.473857 0.463971 0.400984
P_10 0.435601 0.425043 0.480660 0.578201 0.608456 0.668490
P_10 0.819657 0.806793 0.950808 1.193453 1.112146 1.141190
P_10 1.217272 1.155845 1.170909 1.143388 1.090649 1.161109
P_10 1.069441 1.041837 0.952665 1.043267 0.994202 0.975328
P_10 0.917464 1.045130 0.962090 0.997942 1.015497 0.953967
P_10 1.119982 0.987061 1.085561 1.252182 1.088598 1.056284
P_10 1.086842 0.935054 0.954750 0.860384 0.835642 0.749407
P_10 0.660230 0.627685 0.567438 0.487383 0.458202 0.471918
P_10 0.439416 0.476190 0.564146 0.566698 0.658186 0.828458
P_10 0.903274 0.987724 1.142203 1.169063 1.377692 1.496600
P_10 1.370136 1.437066 1.346215 1.278154 1.322237 1.309710
P_10 1.137141 1.202193 1.184141 0.982389 0.976670 0.981124
P_10 1.011680 1.009884 1.050003 1.035795 1.102545 1.013547
P_10 0.969756 1.118974 1.010507 1.048302 1.113115 1.038801
P_10 1.073145 0.973834 0.952827 0.845345 0.879423 0.727883
P_10 0.767392 0.643855 0.562951 0.558827 0.520869 0.479902
P_10 0.473560 0.469038 0.500787 0.548068 0.582991 0.611074
P_10 0.739719 0.735114 0.866781 0.900617 0.942106 1.074702
P_10 1.040619 1.089926 1.160233 1.058502 1.134468 1.183089
P_10 1.212459 1.135907 0.983384 1.142710 1.050876 1.023322
P_10 0.991669 1.074322 1.091973 1.123870 1.007768 1.027680
P_10 1.055752 0.954372 0.990953 1.028027 0.946196 0.903474
P_10 0.881232 0.887325 0.842174 0.768469 0.740749 0.668177
P_10 0.706802 0.595785 0.607550 0.589091 0.491481 0.525275
P_10 0.497624 0.415800 0.474148 0.492037 0.502453 0.542329
P_10 0.593531 0.619146 0.714848 0.789396 0.867210 0.813650
P_10 0.909061 0.961650 1.022816 1.058571 1.129101 1.136407
P_10 1.042866 1.006132 1.017581 0.968709 1.061351 1.052163
P_10 0.909213 1.016793 0.958485 0.934130 0.894768 0.983908
P_10 0.941607 0.908727 0.894873 1.087916 0.896805 1.022346
P_10 0.887805 0.980720 0.875530 0.824687 0.801660 0.635935
P_10 0.619160 0.574742 0.517263 0.452977 0.460852 0.428929
P_10 0.399307 0.485456 0.470787 0.501710 0.607792 0.732802
P_10 0.755912 0.917127 0.885393 0.979633 1.138043 1.201406
P_10 1.264625 1.227231 1.331878 1.373360 1.366184 1.277764
P_10 1.279524 1.342242 1.125464 1.084939 0.973488 0.952825
P_10 0.859069 0.887404 0.919247 0.929508 0.967619 0.969116
P_10 0.940732 1.056600 1.041779 1.071379 0.998097 1.076155
P_10 1.032084 0.985968 1.011059 0.884107 0.739324 0.717049
P_10 0.620063 0.591621 0.549094 0.472365 0.415702 0.459271
P_10 0.411234 0.417141 0.520316 0.551601 0.624789 0.655471
P_10 0.729722 0.881545 1.008716 1.123307 1.186412 1.031166
P_10 1.174473 1.302184 1.204379 1.284988 1.293839 1.194040
P_10 1.156105 1.107080 1.146205 0.989622 0.981180 1.076080
P_10 0.958770 0.915867 1.029358 0.891797 0.959447 1.014671
P_10 1.086748 1.157787 1.178178 1.096300 1.051672 1.116901
P_10 0.998455 1.111074 1.021782 0.877088 0.742564 0.712551
P_10 0.658839 0.611672 0.514624 0.461314 0.453751 0.404695
P_10 0.405003 0.464107 0.521569 0.585978 0.606022 0.757952
P_10 0.910756 1.011304 0.974098 0.957154 1.128686 1.189670
P_10 1.197996 1.064701 1.286642 1.330822 1.230121 1.266510
P_10 1.093606 1.086243 1.102111 1.072133 1.124135 1.039653
P_10 1.030374 1.051035 1.006199 1.024564 1.076464 1.025730
P_10 0.979023 1.010477 0.972771 1.060397 1.031120 1.016934
P_10 0.933734 1.028667 0.888544 0.876175 0.817074 0.681439
P_10 0.716242 0.599534 0.562072 0.508082 0.460873 0.430137
P_10 0.457414 0.432815 0.524074 0.569220 0.634866 0.696051
P_10 0.803235 0.872277 0.981538 1.079695 1.192310 1.227019
P_10 1.265501 1.335010 1.207386 1.230917 1.119090 1.234226
P_10 1.168183 1.016647 1.132825 1.032679 0.962379 1.037219
P_10 0.928597 0.987302 0.968304 0.988492 1.062858 0.962056
P_10 0.900020 1.000971 1.059987 1.000622 1.165989 1.061106
P_10 0.959097 1.037758 1.025331 0.888737 0.881985 0.716153
P_10 0.673195 0.603555 0.546782 0.464354 0.478236 0.423045
P_10 0.452357 0.483267 0.525215 0.635608 0.687177 0.827230
P_10 0.838428 0.918421 1.156996 1.289755 1.314840 1.268904
P_10 1.354578 1.471783 1.410457 1.408816 1.422763 1.304720
P_10 1.073010 1.180760 1.092822 1.138846 1.112070 1.070414
P_10 0.925513 0.986379 1.077524 1.022113 1.021479 1.042593
P_10 1.021388 1.026479 1.139110 1.076446 1.098204 1.058357
P_10 1.067000 0.967610 0.934946 0.854632 0.908055 0.741593
P_10 0.757829 0.592155 0.564201 0.584921 0.542058 0.511265
P_10 0.504833 0.462447 0.468714 0.527214 0.587887 0.699905
P_10 0.692443 0.778170 0.929063 0.926806 1.003870 1.048253
P_10 1.063734 1.237547 1.188961 1.191397 1.269967 1.190686
P_10 1.196940 1.166426 1.130109 1.035246 1.036901 1.090763
P_10 1.110745 0.963987 1.024729 1.035439 1.027773 1.026117
P_10 1.040797 1.059554 1.086924 1.076470 0.989957 0.906842
P_10 0.908535 0.843636 0.802487 0.786345 0.737470 0.705458
P_10 0.645027 0.592522 0.579552 0.539346 0.522606 0.489667
P_10 0.505935 0.468338 0.453854 0.505020 0.497537 0.561652
P_10 0.583864 0.621944 0.691943 0.757116 0.893138 0.822916
P_10 0.920467 1.020112 1.066778 1.089835 1.066863 1.129068
P_10 1.102848 1.070053 1.183329 1.046554 1.080469 1.003255
P_10 0.951898 0.916930 0.957990 0.932794 0.864525 0.924607
P_10 1.028342 1.100111 1.007829 1.025655 0.925943 1.027291
P_10 0.938878 1.026356 0.860793 0.825616 0.801074 0.683013
P_10 0.609897 0.566653 0.507566 0.484768 0.438145 0.420741
P_10 0.431567 0.479028 0.519365 0.603517 0.604103 0.728782
P_10 0.867040 0.932917 1.014017 1.086585 1.136200 1.225729
P_10 1.290547 1.334701 1.138366 1.362954 1.337699 1.208241
P_10 1.416699 1.137578 1.091948 0.988371 1.037698 1.045588
P_10 1.045877 0.974835 0.990849 0.947670 0.984919 0.999413
P_10 0.987241 1.013796 1.048151 1.123738 1.127893 1.051228
P_10 1.039702 1.004940 0.946507 0.971979 0.866020 0.727557
P_10 0.691769 0.587457 0.531753 0.515348 0.438099 0.421846
P_10 0.420501 0.489634 0.500855 0.576278 0.648792 0.759044
P_10 0.726776 0.948536 0.965456 1.079108 1.062073 1.185706
P_10 1.119687 1.297682 1.260133 1.350338 1.324051 1.218049
P_10 1.190392 1.092032 1.083892 1.062911 1.003905 0.960403
P_10 0.908963 0.998377 0.968979 0.980712 0.996684 0.918018
P_10 1.069969 1.158432 1.137788 1.131669 1.147813 1.055948
P_10 1.040363 1.073425 1.005740 0.884106 0.902906 0.716607
P_10 0.655273 0.557705 0.517570 0.493782 0.454296 0.428691
P_10 0.439757 0.504693 0.577549 0.585133 0.636387 0.711048
P_10 0.854479 0.924444 1.095765 1.022564 1.064598 1.168037
P_10 1.097487 1.321220 1.264494 1.311200 1.418069 1.357563
P_10 1.104831 1.070067 1.317221 1.100597 1.016263 1.060006
P_10 0.992266 0.992173 1.032598 0.972037 1.130397 1.090543
P_10 1.097746 1.107272 1.072077 1.006895 1.068370 1.091327
P_10 1.050773 0.952749 1.035336 0.881486 0.743159 0.821713
P_10 0.685955 0.593135 0.517082 0.467752 0.428747 0.458566
P_10 0.415284 0.458700 0.550632 0.573422 0.644621 0.717582
P_10 0.812706 0.880046 0.991668 1.077491 1.209177 1.335427
P_10 1.218369 1.236279 1.451556 1.229710 1.192335 1.211551
P_10 1.195091 1.050947 1.141980 1.055553 0.977045 0.970781
P_10 0.981465 0.999902 0.979477 1.067184 1.005359 0.977395
P_10 1.001936 0.993543 1.089290 1.051438 1.110422 1.169517
P_10 1.037736 1.018375 0.998201 1.035006 0.824930 0.712681
P_10 0.705354 0.617177 0.581933 0.516378 0.494769 0.432084
P_10 0.449935 0.543553 0.569462 0.634864 0.690999 0.803604
P_10 0.996149 0.943537 1.087043 1.130567 1.370741 1.372037
P_10 1.559796 1.382792 1.453203 1.380358 1.345886 1.378083
P_10 1.231708 1.236876 1.173284 1.129957 1.062170 1.031738
P_10 1.003106 1.012368 0.993121 1.116671 1.068210 1.074055
P_10 1.104189 1.092416 1.005718 0.981477 1.180741 1.052216
P_10 1.006878 0.984791 1.005806 0.874372 0.814489 0.743356
P_10 0.756695 0.636784 0.641846 0.599497 0.597735 0.502830
P_10 0.474438 0.418463 0.540587 0.572364 0.593602 0.646858
P_10 0.681159 0.797938 0.929046 0.895363 1.034398 1.095586
P_10 1.098744 1.210551 1.254824 1.137619 1.227405 1.240794
P_10 1.157375 1.215049 1.214745 1.122695 1.070480 1.153144
P_10 1.160217 1.141813 1.033621 1.115458 1.035281 1.042241
P_10 1.051904 1.070470 1.037851 1.002692 1.051517 0.923414
P_10 0.968035 0.926734 0.862735 0.916923 0.813360 0.667619
P_10 0.680478 0.558145 0.581268 0.541568 0.496453 0.500175
P_10 0.456041 0.474341 0.481061 0.507405 0.491892 0.573980
P_10 0.658103 0.620951 0.684702 0.813077 0.879312 0.995175
P_10 1.042204 0.965556 1.068787 1.060139 1.149541 1.074595
P_10 1.086399 1.103567 1.100478 1.074033 0.984209 1.056343
P_10 1.030410 0.966070 0.937305 0.983653 1.055231 0.873564
P_10 0.975425 0.924967 1.132351 0.956298 0.980090 0.959157
P_10 1.014135 0.886473 0.891336 0.853525 0.804745 0.675788
P_10 0.687581 0.562563 0.518729 0.509694 0.436202 0.452998
P_10 0.453702 0.436382 0.563473 0.568453 0.627637 0.704755
P_10 0.758885 0.915185 1.083528 1.161184 1.066293 1.330362
P_10 1.220620 1.251288 1.318984 1.492032 1.380302 1.179393
P_10 1.244297 1.279290 1.233475 1.113172 1.037636 0.962388
P_10 0.912327 0.907436 0.939829 0.931302 0.922111 1.087334
P_10 1.022186 1.085314 0.924174 1.164143 1.083457 1.117935
P_10 1.105132 1.050936 0.989861 0.950652 0.820497 0.733628
P_10 0.721079 0.611200 0.537174 0.521401 0.470572 0.447803
P_10 0.422623 0.463729 0.485457 0.609053 0.637742 0.685915
P_10 0.833111 0.864170 1.059375 0.985922 1.058541 1.260469
P_10 1.247702 1.148972 1.294175 1.308819 1.281730 1.215308
P_10 1.223628 1.234853 1.092732 1.091794 1.038301 1.011841
P_10 0.923633 1.008390 1.067086 1.011024 0.998876 1.102540
P_10 1.138222 1.172183 1.226366 1.081106 1.160412 1.059142
P_10 1.167185 1.002058 0.913205 1.005337 0.767040 0.759701
P_10 0.632923 0.639940 0.564776 0.510466 0.488627 0.439696
P_10 0.459081 0.441267 0.543325 0.561499 0.672831 0.768259
P_10 0.913655 0.974981 0.978829 1.217738 1.179302 1.247530
P_10 1.360366 1.404479 1.273061 1.280431 1.332061 1.328336
P_10 1.209150 1.206919 1.084852 1.057474 1.065417 0.937445
P_10 1.009442 1.104317 0.969782 1.102582 1.041421 1.029037
P_10 1.116437 1.033979 1.051146 1.145162 1.108471 1.097604
P_10 1.085746 1.128751 1.026007 0.961546 0.876417 0.754996
P_10 0.712849 0.663589 0.522695 0.495351 0.473477 0.460675
P_10 0.464080 0.482540 0.535447 0.566443 0.736882 0.774637
P_10 0.798825 0.929841 1.054753 1.169290 1.246028 1.293949
P_10 1.320239 1.176766 1.321474 1.310283 1.153861 1.176933
P_10 1.222570 1.087598 1.032445 1.115710 0.959985 0.966523
P_10 1.018809 0.947929 1.092261 1.020384 1.072448 1.053471
P_10 1.090803 1.109318 1.180960 1.122532 1.174911 1.172030
P_10 1.081489 1.010252 1.053898 0.921390 0.821063 0.762647
P_10 0.713902 0.641027 0.593072 0.481796 0.401831 0.543873
P_10 0.488101 0.544752 0.587328 0.651026 0.754605 0.767294
P_10 1.032999 0.987320 1.182326 1.234166 1.405846 1.322310
P_10 1.403102 1.408394 1.486898 1.517977 1.373280 1.460272
P_10 1.294909 1.187657 1.155824 1.128004 1.108671 1.009399
P_10 1.153545 1.069688 1.144776 1.134206 1.207301 1.019946
P_10 1.134146 1.130364 1.114758 1.063311 1.094380 1.047611
P_10 1.029224 0.975887 0.950201 0.984456 0.779077 0.756338
P_10 0.815252 0.679339 0.616784 0.549806 0.568758 0.505635
P_10 0.509488 0.525098 0.525289 0.582180 0.535918 0.620415
P_10 0.666536 0.829510 0.875842 0.854173 1.018314 1.117003
P_10 1.133481 1.092756 1.398943 1.286619 1.297865 1.308965
P_10 1.213827 1.115726 1.196165 1.192885 1.067022 1.093504
P_10 1.193718 1.176946 1.158623 1.171223 1.098118 1.068640
P_10 1.039980 1.075003 1.072584 1.069691 1.007313 0.933858
P_10 0.963940 0.845912 0.851123 0.761611 0.739769 0.750507
P_10 0.683403 0.625366 0.615072 0.571894 0.576982 0.535260
P_10 0.520705 0.513813 0.515116 0.499517 0.512542 0.560597
P_10 0.598472 0.697976 0.747674 0.769156 0.875355 0.939909
P_10 0.924461 1.046174 1.173869 1.094002 1.163090 1.194601
P_10 1.151209 1.206240 1.090974 1.174653 1.064185 1.054330
P_10 0.976332 0.920979 1.018988 0.974241 0.964796 1.000273
P_10 1.038023 1.003721 1.074695 1.021794 1.081803 1.036265
P_10 1.039650 0.960858 0.944078 0.881198 0.822306 0.683665
P_10 0.703168 0.548771 0.504413 0.503537 0.442961 0.466338
P_10 0.482004 0.490704 0.579140 0.538057 0.682219 0.766335
P_10 0.835160 0.984174 0.998647 1.052854 1.173492 1.225840
P_10 1.307250 1.374480 1.490567 1.444673 1.458205 1.363927
P_10 1.311260 1.300236 1.146761 1.163469 1.008741 1.023789
P_10 0.964652 0.984887 0.927170 0.888123 0.964196 1.060939
P_10 1.040626 1.081008 1.208647 1.084028 1.133850 1.123216
P_10 1.138070 0.993312 1.041531 0.986404 0.807695 0.797226
P_10 0.707409 0.622978 0.586000 0.509023 0.480574 0.456222
P_10 0.475239 0.466879 0.487468 0.572026 0.700281 0.761641
P_10 0.856469 0.925048 1.104147 1.088762 1.200436 1.213333
P_10 1.319169 1.376241 1.251655 1.412665 1.324145 1.397952
P_10 1.192317 1.157742 1.160609 1.067774 1.017413 0.998451
P_10 0.960605 1.058633 0.946070 1.054210 1.038307 1.048192
P_10 1.168908 1.127401 1.048393 1.253693 1.131591 1.165836
P_10 1.132582 1.045749 0.996975 0.979239 0.886425 0.815056
P_10 0.764009 0.613810 0.537285 0.467524 0.476879 0.453866
P_10 0.462974 0.496539 0.550001 0.623832 0.687342 0.798652
P_10 0.847333 1.029218 1.049883 1.127171 1.192088 1.242011
P_10 1.212245 1.308716 1.398873 1.288076 1.302525 1.341764
P_10 1.309861 1.202691 1.229333 1.199876 1.109835 1.077728
P_10 0.958741 0.976862 0.993137 1.027344 1.070247 1.129171
P_10 1.118650 1.100137 1.145526 1.191552 1.168369 1.075122
P_10 1.083780 1.070066 1.058140 0.895580 0.843015 0.811607
P_10 0.728284 0.593514 0.591432 0.531933 0.493542 0.466819
P_10 0.477029 0.442959 0.487443 0.603101 0.657432 0.744497
P_10 0.835132 1.002504 1.032563 1.137290 1.199363 1.333377
P_10 1.249740 1.310078 1.408285 1.220606 1.247111 1.245284
P_10 1.158703 1.238817 1.031028 1.071518 1.089936 1.039988
P_10 0.942684 0.969570 1.051129 1.000468 0.957546 1.018301
P_10 1.090045 1.042510 1.109109 1.062106 1.182593 1.129256
P_10 1.064569 1.117663 1.051218 0.957477 0.815584 0.780461
P_10 0.761877 0.697986 0.502531 0.534254 0.491583 0.463908
P_10 0.509245 0.545144 0.582789 0.677950 0.785741 0.903053
P_10 1.005673 1.026360 1.124530 1.255382 1.266753 1.435875
P_10 1.567359 1.458610 1.550696 1.375635 1.413756 1.355308
P_10 1.290445 1.341932 1.317593 1.146528 1.170321 1.030151
P_10 1.103570 1.126367 1.046297 1.133846 1.088582 1.026730
P_10 1.172249 1.079956 1.116870 1.119235 1.097041 1.162208
P_10 1.026380 1.107421 0.928576 0.898664 0.945050 0.866505
P_10 0.784434 0.788354 0.634197 0.640418 0.593387 0.544782
P_10 0.508347 0.494931 0.484620 0.515030 0.646844 0.664151
P_10 0.729632 0.840531 0.867216 0.977569 1.000689 1.099168
P_10 1.182107 1.325073 1.262351 1.219524 1.234445 1.191817
P_10 1.302456 1.245720 1.246109 1.161259 1.250275 1.151685
P_10 1.093428 1.101318 1.176838 1.131699 1.081287 1.147742
P_10 1.171819 1.009217 1.050860 1.058801 1.099403 1.029091
P_10 0.933915 0.907411 0.896970 0.800571 0.877657 0.768164
P_10 0.713903 0.649279 0.635721 0.580921 0.589168 0.509851
P_10 0.529734 0.491586 0.566004 0.514527 0.552465 0.584922
P_10 0.610650 0.682713 0.712780 0.862143 0.949721 0.871999
P_10 1.022984 1.048136 1.128288 1.223464 1.178891 1.150678
P_10 1.111488 1.116370 1.181931 1.115524 1.062649 0.997804
P_10 1.043307 0.957633 1.063530 1.049198 1.053782 1.051359
P_10 0.997190 1.014585 1.103481 1.060206 1.001912 1.111273
P_10 1.079945 0.965237 0.941784 0.878580 0.746828 0.758978
P_10 0.729772 0.612662 0.516938 0.531826 0.438849 0.475967
P_10 0.442742 0.482134 0.541271 0.561214 0.658462 0.691626
P_10 0.941252 0.975044 1.123951 1.168308 1.237971 1.324265
P_10 1.317754 1.565600 1.439045 1.359587 1.368150 1.318600
P_10 1.287393 1.274314 1.217879 1.205706 1.176023 0.980149
P_10 1.041146 1.072424 1.002079 0.980349 0.896081 0.974992
P_10 1.057610 1.213261 1.133415 1.299416 1.113609 1.210968
P_10 1.163509 1.120547 1.108985 0.941606 0.847989 0.842879
P_10 0.627143 0.613823 0.601140 0.528513 0.492494 0.425484
P_10 0.503014 0.485320 0.578413 0.604097 0.601149 0.744182
P_10 0.936396 0.982405 0.996475 1.110163 1.143704 1.254990
P_10 1.343660 1.357131 1.365316 1.295334 1.311787 1.211668
P_10 1.350500 1.197748 1.100019 1.053591 1.082067 1.031625
P_10 1.031807 1.067308 1.011074 1.032756 1.037709 1.102118
P_10 1.089644 1.220734 1.243819 1.198661 1.135417 1.146334
P_10 1.051681 1.197661 1.056888 1.002288 0.939353 0.875340
P_10 0.743272 0.664411 0.576703 0.484198 0.466575 0.512487
P_10 0.472377 0.526759 0.568848 0.628273 0.713143 0.830513
P_10 0.966617 0.941779 1.132463 1.068840 1.192157 1.307918
P_10 1.375035 1.357587 1.259950 1.423549 1.350944 1.303387
P_10 1.303108 1.194104 1.269396 1.101082 1.147142 1.048897
P_10 1.198289 1.092695 1.102476 1.096812 1.136194 1.192946
P_10 1.115464 1.107198 1.132043 1.109943 1.166553 1.257668
P_10 1.060186 1.075511 1.016195 0.909410 0.920720 0.785988
P_10 0.723818 0.648488 0.541300 0.540259 0.479636 0.424804
P_10 0.451731 0.505664 0.540893 0.652624 0.761980 0.836008
P_10 0.882933 1.086837 1.088896 1.170117 1.285914 1.321343
P_10 1.329320 1.457058 1.357209 1.382567 1.223863 1.363412
P_10 1.230020 1.090688 1.163195 1.144262 1.083630 1.056934
P_10 1.086284 1.031614 1.033612 1.145087 1.107997 1.141208
P_10 1.072333 1.071929 1.202901 1.311922 1.102247 1.220315
P_10 1.142058 1.093222 1.035041 0.998675 0.989706 0.829597
P_10 0.744367 0.679148 0.583760 0.487947 0.461106 0.492150
P_10 0.480116 0.537135 0.620757 0.651303 0.748518 0.907007
P_10 1.045158 1.074498 1.249355 1.475850 1.429893 1.464713
P_10 1.329099 1.551300 1.508898 1.483791 1.529084 1.440573
P_10 1.370441 1.274877 1.382922 1.286749 1.215800 1.103944
P_10 1.073082 1.177041 1.163318 1.104474 1.148370 1.156151
P_10 1.201505 1.186347 1.210864 1.055719 1.098458 1.046626
P_10 0.950718 1.162365 1.053469 0.930245 0.972834 0.833420
P_10 0.792438 0.685872 0.640317 0.609217 0.563964 0.543553
P_10 0.566119 0.546913 0.560428 0.576963 0.644603 0.694898
P_10 0.738860 0.815938 0.863353 1.046864 0.960238 1.172139
P_10 1.282748 1.335159 1.224447 1.474251 1.443022 1.253482
P_10 1.149914 1.250326 1.247493 1.280790 1.175546 1.101668
P_10 1.174324 1.232321 1.145204 1.234859 1.131475 1.250520
P_10 1.173353 1.138971 1.070342 1.163481 1.027245 1.048970
P_10 0.967844 1.032063 0.930975 0.869528 0.823168 0.826777
P_10 0.750609 0.723022 0.645264 0.577285 0.525360 0.485410
P_10 0.592988 0.538535 0.532438 0.529945 0.536474 0.602309
P_10 0.604813 0.664058 0.733782 0.788236 0.823691 1.027982
P_10 0.912253 1.078302 1.204180 1.251847 1.243097 1.261189
P_10 1.251864 1.264903 1.026256 1.174796 1.164591 1.014407
P_10 1.178654 1.096870 1.054864 1.000932 1.060607 0.947449
P_10 1.013534 1.103793 1.134072 1.035807 1.102775 1.124002
P_10 1.008254 1.102962 1.034269 0.896357 0.848685 0.752283
P_10 0.734488 0.585778 0.531791 0.507584 0.525051 0.481142
P_10 0.478574 0.497347 0.483697 0.609371 0.686749 0.770370
P_10 0.926327 0.960397 1.041582 1.141690 1.178875 1.372051
P_10 1.471245 1.574677 1.475092 1.584108 1.308011 1.426447
P_10 1.292092 1.274743 1.142894 1.224143 1.035859 1.096195
P_10 1.019611 0.984928 1.016633 1.022510 0.929800 1.016282
P_10 1.079882 1.136154 1.065695 1.274458 1.192706 1.230169
P_10 1.132182 1.074023 1.095364 0.932807 0.884189 0.800596
P_10 0.774680 0.675730 0.592000 0.527129 0.459115 0.456044
P_10 0.500268 0.517662 0.542183 0.655182 0.637641 0.773111
P_10 0.912063 0.991793 1.080414 1.119571 1.239224 1.293944
P_10 1.325717 1.392737 1.359325 1.466206 1.371173 1.394096
P_10 1.323404 1.217218 1.179399 1.096714 1.099634 1.137804
P_10 1.132582 0.987000 1.045677 1.009228 1.026632 1.106304
P_10 0.997428 1.101629 1.087536 1.208241 1.261593 1.248870
P_10 1.141541 1.154238 1.095758 0.945124 0.874758 0.785518
P_10 0.702820 0.655036 0.633078 0.544431 0.532669 0.464567
P_10 0.479154 0.532302 0.567162 0.649461 0.731350 0.819202
P_10 0.982833 1.103711 0.990377 1.126788 1.250484 1.251638
P_10 1.346188 1.424855 1.402820 1.482646 1.369191 1.405866
P_10 1.314752 1.258776 1.069767 1.335280 1.263041 1.083194
P_10 1.062994 1.078700 1.083288 1.155176 1.072974 1.160475
P_10 1.147611 1.140169 1.087621 1.174828 1.304485 1.190428
P_10 1.146797 1.084898 1.035309 0.938227 0.900654 0.819820
P_10 0.711322 0.676731 0.552984 0.551986 0.498357 0.475554
P_10 0.485469 0.525930 0.599998 0.678511 0.719759 0.789695
P_10 0.894450 1.096649 1.126279 1.131504 1.409374 1.321220
P_10 1.382133 1.418026 1.335981 1.407262 1.370213 1.376893
P_10 1.290975 1.140996 1.169395 1.208186 1.149134 1.139268
P_10 1.063432 1.048887 1.113294 1.088461 1.115713 1.154310
P_10 1.151123 1.214894 1.203433 1.182666 1.170550 1.044281
P_10 1.138708 1.063765 1.040788 0.984604 0.905473 0.856331
P_10 0.686151 0.653055 0.616906 0.520205 0.484844 0.530301
P_10 0.516231 0.533353 0.597250 0.672487 0.731559 0.918255
P_10 1.063726 1.149578 1.215395 1.253971 1.395935 1.531593
P_10 1.463662 1.427136 1.554773 1.560134 1.513558 1.378862
P_10 1.445716 1.304926 1.359432 1.156336 1.110540 1.207200
P_10 1.167469 1.170713 1.192909 1.108861 1.130528 1.196939
P_10 1.232223 1.159730 1.068663 1.220078 1.139733 1.125163
P_10 1.213644 1.042456 1.048647 1.002286 0.890710 0.902950
P_10 0.826882 0.717645 0.637653 0.610828 0.564365 0.584725