; Filename: networks/Net1.inp
; WNTR: 0.1.6
; Created: 2019-04-09 13:20:47
[TITLE]
EPANET Example Network 1
A simple example of modeling chlorine decay. Both bulk and
wall reactions are included.

[JUNCTIONS]
;ID                      Elevation       Demand Pattern                 
 10                               710               0                            ;
 11                               710               0                            ;
 12                               700               0                            ;
 13                               695               0                            ;
 21                               700               0                            ;
 22                               695               0                            ;
 23                               690               0                            ;
 31                               700               0                            ;
 32                               710               0                            ;

[RESERVOIRS]
;ID                                   Head                  Pattern
 9                                800                            ;

[TANKS]
;ID                              Elevation           Init Level            Min Level            Max Level             Diameter           Min Volume Volume Curve        
 2                                850             120             100             150            50.5               0                        ;

[PIPES]
;ID                   Node1                Node2                              Length             Diameter            Roughness           Minor Loss               Status
 10                   10                   11                             10530              18             100               0                 Open   ;
 11                   11                   12                              5280              14             100               0                 Open   ;
 12                   12                   13                              5280              10             100               0                 Open   ;
 21                   21                   22                              5280              10             100               0                 Open   ;
 22                   22                   23                              5280              12             100               0                 Open   ;
 31                   31                   32                              5280               6             100               0                 Open   ;
 110                  2                    12                               200              18             100               0                 Open   ;
 111                  11                   21                              5280              10             100               0                 Open   ;
 112                  12                   22                              5280              12             100               0                 Open   ;
 113                  13                   23                              5280               8             100               0                 Open   ;
 121                  21                   31                              5280               8             100               0                 Open   ;
 122                  22                   32                              5280               6             100               0                 Open   ;

[PUMPS]
;ID                   Node1                Node2                Properties          
 9                    9                    10                   HEAD     1                      ;

[VALVES]
;ID                   Node1                Node2                            Diameter Type              Setting           Minor Loss

[TAGS]
;type      name       tag       

[DEMANDS]
;ID        Demand     Pattern   
10         0.0        P_10      
11         150.0      P_11      
12         150.0      P_12      
13         100.0      P_13      
21         150.0      P_21      
22         200.0      P_22      
23         150.0      P_23      
31         100.0      P_31      
32         100.0      P_32      

[STATUS]
;ID        Setting   
[PATTERNS]
;ID        Multipliers

1 1.000000 1.200000 1.400000 1.600000 1.400000 1.200000
1 1.000000 0.800000 0.600000 0.400000 0.600000 0.800000

P_10 0.658296 0.529456 0.464632 0.427087 0.409111 0.395816
P_10 0.383953 0.398746 0.437436 0.514610 0.568495 0.724468
P_10 0.794091 0.904252 0.920139 1.164573 1.073452 1.195484
P_10 1.230796 1.242209 1.269255 1.227541 1.328686 1.242766
P_10 1.178377 1.127299 0.967123 0.945837 1.046456 0.878351
P_10 0.864183 0.897112 0.823483 0.882837 0.904330 0.906288
P_10 0.930879 1.030067 1.032828 1.052772 1.051591 1.053462
P_10 1.069475 1.023500 1.038028 0.926706 0.864335 0.696793
P_10 0.616396 0.572485 0.527285 0.451062 0.441640 0.452051
P_10 0.445812 0.440055 0.478633 0.544474 0.594785 0.663594
P_10 0.739515 0.876065 0.978322 1.052502 1.034912 1.105294
P_10 1.181383 1.123981 1.171845 1.317554 1.280762 1.134941
P_10 1.240197 1.154921 1.027173 1.018460 0.883267 0.943180
P_10 0.925918 0.839331 0.905346 0.871632 1.031687 1.027961
P_10 1.042924 1.027674 1.164818 1.137701 1.091900 1.030104
P_10 1.067924 1.094397 0.850034 0.944764 0.835092 0.741368
P_10 0.649243 0.569053 0.507273 0.430868 0.396107 0.425132
P_10 0.397502 0.461337 0.492971 0.519253 0.610418 0.761144
P_10 0.784492 0.887625 1.050972 0.968215 1.028843 1.131403
P_10 1.088298 1.118530 1.350727 1.143062 1.226332 1.205287
P_10 1.217201 1.153127 1.077121 1.058142 0.980697 1.059406
P_10 0.873966 0.988324 1.008006 0.996437 0.929046 1.004805
P_10 0.981798 1.022158 1.074089 1.079334 1.018687 1.061137
P_10 1.091103 1.056936 0.937880 0.916828 0.899434 0.744035
P_10 0.679270 0.632777 0.517528 0.458258 0.432768 0.389859
P_10 0.429102 0.392365 0.416529 0.549808 0.607202 0.681683
P_10 0.787410 0.870767 1.045914 1.077420 1.181202 1.147424
P_10 1.220396 1.066486 1.160812 1.207187 1.056793 1.209016
P_10 1.075380 1.019170 1.023292 1.007719 0.834252 0.968096
P_10 0.972941 0.939112 0.984897 0.938569 1.000891 1.038294
P_10 1.068989 1.116025 1.065257 1.203581 1.117165 1.155180
P_10 1.036423 1.041519 0.978208 0.902181 0.864865 0.744567
P_10 0.763730 0.641723 0.581606 0.458680 0.480486 0.432817
P_10 0.459558 0.506899 0.500738 0.534428 0.645480 0.756713
P_10 0.975012 0.942743 1.164372 1.153463 1.225070 1.297346
P_10 1.478657 1.270003 1.374596 1.332032 1.310128 1.235300
P_10 1.242340 1.081058 1.089642 1.067408 1.058536 0.972335
P_10 1.005084 0.958385 1.041880 1.080013 1.079543 1.089977
P_10 1.082887 1.064957 1.043551 1.032412 1.060250 0.957718
P_10 0.997656 0.996293 0.913281 0.941317 0.892225 0.728163
P_10 0.754021 0.693679 0.567932 0.532073 0.549369 0.463731
P_10 0.430498 0.458073 0.436977 0.469764 0.519172 0.601028
P_10 0.619470 0.775384 0.776523 0.785993 0.912357 1.027289
P_10 1.093311 1.011516 1.178341 1.027184 1.197750 1.056045
P_10 1.216119 1.061900 1.024830 1.110166 1.131885 1.008797
P_10 1.092980 1.033471 0.971024 0.991948 0.975536 0.988659
P_10 1.032851 1.089042 0.999578 0.979524 0.907282 0.961215
P_10 0.832513 0.817489 0.862276 0.782151 0.761135 0.666351
P_10 0.665236 0.581554 0.608476 0.521864 0.475917 0.486790
P_10 0.462442 0.442448 0.436711 0.430625 0.460883 0.493993
P_10 0.469394 0.543504 0.632797 0.649602 0.759329 0.882882
P_10 0.897395 0.991446 1.020925 0.929292 1.024443 0.944920
P_10 1.080682 0.980095 1.120538 1.045168 0.895482 0.999019
P_10 0.989682 0.991921 0.973823 0.974837 0.880104 0.943205
P_10 1.004220 0.858003 0.968668 0.988781 0.959303 0.996513
P_10 0.987633 0.928345 0.860281 0.811291 0.814713 0.716822
P_10 0.636026 0.488805 0.499424 0.455669 0.416037 0.408541
P_10 0.396557 0.412578 0.456695 0.570876 0.647703 0.695765
P_10 0.734288 0.822143 0.841143 0.988364 1.212955 1.228454
P_10 1.219940 1.240488 1.444139 1.252082 1.193993 1.264541
P_10 1.210463 1.223637 1.079159 0.976371 0.989350 0.884893
P_10 0.951851 0.903401 0.891856 0.889977 0.911165 1.031879
P_10 0.982027 1.148852 1.113050 1.003799 1.066227 1.054198
P_10 1.035265 1.076259 0.999142 0.935040 0.852099 0.734620
P_10 0.739112 0.592791 0.490414 0.496372 0.432253 0.448449
P_10 0.437306 0.421153 0.498889 0.564957 0.561512 0.665425
P_10 0.722091 0.896246 1.005088 0.996068 1.135694 1.136058
P_10 1.146227 1.288071 1.185819 1.325085 1.350440 1.227700
P_10 1.099513 1.060406 0.956686 0.936397 1.062166 0.955732
P_10 0.974711 0.866578 0.927027 0.961815 1.015500 0.969345
P_10 1.022993 1.053274 1.081205 1.162368 1.141049 1.044290
P_10 1.161120 1.107431 0.913209 0.893440 0.785803 0.695993
P_10 0.688225 0.516835 0.533690 0.462517 0.474081 0.450680
P_10 0.435967 0.483119 0.470464 0.548106 0.654878 0.672931
P_10 0.788053 0.853323 0.896275 1.073316 1.095652 1.174697
P_10 1.155731 1.210669 1.132429 1.290209 1.272085 1.247101
P_10 1.152073 1.180100 1.098798 1.084874 1.092189 0.961353
P_10 1.050642 0.985167 1.013548 1.043682 1.015377 1.083532
P_10 1.089948 1.087826 1.032993 1.150223 0.978548 1.090365
P_10 1.139723 0.972488 1.032302 0.914309 0.920610 0.788357
P_10 0.676519 0.636597 0.531028 0.431498 0.465076 0.399161
P_10 0.401009 0.421340 0.445915 0.557711 0.625751 0.724875
P_10 0.842412 0.928692 0.991155 1.107702 1.099245 1.090345
P_10 1.217607 1.182096 1.220740 1.206275 1.285750 1.190425
P_10 1.088338 1.236420 1.108895 0.991869 1.001271 0.981211
P_10 0.987535 0.975794 0.966545 1.051669 0.979776 1.033286
P_10 1.014782 1.065003 1.028109 1.116764 1.080947 1.102366
P_10 1.153314 1.082395 1.016826 0.962305 0.808893 0.732864
P_10 0.703650 0.626865 0.576554 0.524161 0.493947 0.433750
P_10 0.489790 0.486399 0.488886 0.589929 0.670171 0.761572
P_10 0.838361 1.021529 1.147736 1.172661 1.433068 1.352514
P_10 1.359769 1.459697 1.523158 1.400862 1.402492 1.276615
P_10 1.255457 1.265305 1.147889 1.043335 1.099725 0.942461
P_10 1.042010 0.997677 1.068209 1.064677 1.043726 1.119699
P_10 1.145096 1.115655 1.049641 1.115167 1.106700 1.081975
P_10 1.091415 1.001055 1.013700 0.974149 0.908899 0.796170
P_10 0.721267 0.673482 0.595889 0.552095 0.498693 0.507090
P_10 0.488806 0.445919 0.499869 0.483742 0.564803 0.631925
P_10 0.622203 0.731889 0.759208 0.861019 1.008108 1.064012
P_10 1.072372 1.108887 1.185367 1.164073 1.158373 1.227170
P_10 1.234865 1.180332 1.112018 1.056408 1.026592 1.176695
P_10 1.088275 1.066598 1.082709 1.039078 1.038440 1.132726
P_10 1.074560 1.112809 1.010657 1.035202 1.035976 1.041520
P_10 0.888035 0.911219 0.869877 0.842775 0.802387 0.671184
P_10 0.655727 0.638967 0.572357 0.539278 0.499135 0.452613
P_10 0.439409 0.437195 0.450571 0.438295 0.440107 0.495381
P_10 0.572214 0.575192 0.649613 0.721699 0.862498 0.790529
P_10 0.912651 0.934389 0.908825 1.135949 1.150723 1.043042
P_10 1.145909 1.097038 1.050976 1.073049 0.963514 1.008773
P_10 0.924202 1.039019 0.971673 0.947670 0.937225 0.944015
P_10 0.958319 0.913706 0.980859 1.077627 1.027602 1.061852
P_10 0.974579 0.920147 0.914563 0.810061 0.800451 0.647508
P_10 0.626071 0.570624 0.562859 0.450349 0.426611 0.437421
P_10 0.447225 0.425840 0.467170 0.517051 0.552617 0.715726
P_10 0.775110 0.911065 0.914467 0.916304 1.112732 1.176061
P_10 1.304581 1.245539 1.303369 1.341517 1.377366 1.356088
P_10 1.270351 1.131522 1.145916 1.085678 0.970748 0.998618
P_10 0.931300 0.906544 0.931762 0.859690 1.034605 0.992669
P_10 1.022506 0.969893 1.150120 1.131751 1.074438 1.092608
P_10 1.149260 1.037346 1.042067 1.000761 0.883121 0.753158
P_10 0.661294 0.581792 0.528883 0.475000 0.500585 0.455522
P_10 0.441872 0.471849 0.478286 0.556917 0.585599 0.708002
P_10 0.759319 0.943422 0.991221 1.142334 1.064452 1.120652
P_10 1.209031 1.179614 1.190003 1.320303 1.294288 1.228939
P_10 1.225928 1.221380 1.058020 0.988238 0.970736 0.970099
P_10 0.877094 0.972047 0.982779 0.892659 1.061398 0.951433
P_10 1.105835 1.023681 1.161886 1.231229 1.151817 1.090150
P_10 1.096755 1.095609 0.967313 0.908175 0.783137 0.722355
P_10 0.651111 0.588925 0.536254 0.489607 0.426776 0.444841
P_10 0.424584 0.455381 0.587065 0.556925 0.661848 0.709482
P_10 0.824812 0.950591 0.933736 1.061565 1.131680 1.204426
P_10 1.147509 1.255778 1.237795 1.235669 1.291695 1.195554
P_10 1.083289 1.151894 1.178538 1.071426 1.119567 1.062029
P_10 0.990959 0.974525 1.037541 0.970811 1.118141 1.179557
P_10 1.029630 1.054451 1.145808 1.030657 1.044227 1.171903
P_10 1.083483 1.040705 0.956777 1.007418 0.816818 0.832217
P_10 0.716368 0.600673 0.565345 0.476208 0.456569 0.420422
P_10 0.419529 0.473812 0.459836 0.536477 0.669330 0.695014
P_10 0.761159 0.959502 0.991289 1.110791 1.131429 1.219288
P_10 1.238859 1.227438 1.280319 1.335338 1.235717 1.152184
P_10 1.200337 1.047204 1.056008 1.082988 1.086812 1.078473
P_10 0.959143 0.965807 0.951821 1.117452 0.938217 0.985600
P_10 1.046316 1.210052 1.075573 1.113165 1.082465 1.240372
P_10 1.121541 1.065708 1.068488 1.000204 0.915055 0.834080
P_10 0.728668 0.626565 0.585382 0.582848 0.457228 0.452127
P_10 0.466587 0.451102 0.561025 0.589935 0.662851 0.816305
P_10 0.930389 1.026129 1.176867 1.217515 1.191456 1.265194
P_10 1.405486 1.473065 1.432456 1.601842 1.374865 1.280231
P_10 1.365458 1.154258 1.151855 1.177817 1.124420 1.059673
P_10 1.107012 1.142779 0.999050 1.115518 1.121442 1.138438
P_10 1.022033 1.157710 1.133785 1.169138 1.099921 1.073759
P_10 1.036444 1.010544 0.916880 1.001245 0.895724 0.829119
P_10 0.798893 0.739530 0.637555 0.615897 0.541736 0.470864
P_10 0.479263 0.491319 0.452724 0.499416 0.570297 0.609822
P_10 0.621516 0.754074 0.793865 0.880567 0.984476 0.983795
P_10 1.038187 1.181870 1.137456 1.195173 1.218932 1.243062
P_10 1.142748 1.120597 1.223096 1.145833 1.066187 1.080350
P_10 1.065371 1.008202 1.115628 0.997365 1.114958 1.070984
P_10 1.128590 1.099801 0.920146 1.013786 1.116832 1.043469
P_10 0.962670 0.813200 0.866008 0.722907 0.743010 0.695611
P_10 0.626932 0.585841 0.610888 0.568087 0.525461 0.500297
P_10 0.483761 0.452268 0.439264 0.458801 0.464035 0.535285
P_10 0.505558 0.489042 0.702510 0.769225 0.822108 0.834377
P_10 0.839892 1.030274 1.030603 1.127625 1.033533 1.033530
P_10 1.024278 1.103060 1.090777 1.051204 1.132123 0.992173
P_10 0.976948 0.977053 0.951303 0.839859 0.930789 0.954591
P_10 1.040435 0.949841 1.084220 1.072257 1.117003 1.001620
P_10 0.908534 0.959907 0.938883 0.877597 0.843874 0.723948
P_10 0.679764 0.584360 0.499747 0.514742 0.422283 0.398616
P_10 0.429619 0.465631 0.506553 0.533858 0.634616 0.694662
P_10 0.733315 0.815893 1.128756 1.106225 1.110661 1.177957
P_10 1.298604 1.289323 1.372923 1.287604 1.423182 1.359308
P_10 1.293446 1.173105 1.136026 1.158166 1.098223 1.035517
P_10 0.929798 0.911673 0.930211 0.990812 0.983571 0.976057
P_10 1.017249 1.136094 1.128008 1.092987 1.227845 1.098713
P_10 1.162847 1.079292 0.987557 0.851145 0.886449 0.766690
P_10 0.696927 0.658059 0.528062 0.511431 0.488479 0.461924
P_10 0.424851 0.468438 0.452115 0.547356 0.665235 0.730552
P_10 0.817970 0.848306 0.968996 0.950566 1.062364 1.152420
P_10 1.213340 1.312085 1.224960 1.403323 1.280622 1.268021
P_10 1.284732 1.108741 1.100093 1.002893 1.048208 0.967580
P_10 0.932396 1.059691 0.954439 0.999316 1.064225 0.998839
P_10 1.054763 1.132214 1.118358 1.223416 1.081865 1.201055
P_10 1.109587 1.118409 1.049694 0.988861 0.884185 0.727765
P_10 0.666612 0.584634 0.558521 0.495574 0.487292 0.410539
P_10 0.425228 0.461523 0.518095 0.595791 0.693312 0.830755
P_10 0.845180 0.892226 1.064450 1.124573 1.215158 1.162971
P_10 1.160531 1.283064 1.288910 1.213810 1.316929 1.294485
P_10 1.334540 1.141851 1.274301 1.241012 1.172229 0.967411
P_10 1.083663 0.993765 1.024456 1.100452 0.941567 1.085376
P_10 1.052942 1.024989 1.121446 1.189443 1.157184 1.129893
P_10 1.138747 1.029079 1.075589 1.057891 0.880141 0.907605
P_10 0.835965 0.578949 0.579266 0.476591 0.504236 0.468353
P_10 0.428825 0.450093 0.518716 0.612073 0.684472 0.771759
P_10 0.869750 0.858224 0.972500 1.047894 1.195935 1.219790
P_10 1.248477 1.371842 1.303130 1.157997 1.325742 1.262318
P_10 1.196597 1.141224 1.080014 1.089306 0.945534 1.078543
P_10 1.029987 0.973362 0.960779 1.111047 0.933355 1.064374
P_10 1.029819 1.085612 1.072577 1.106089 1.274617 1.157497
P_10 1.078357 1.073087 1.050932 0.988880 0.820903 0.778890
P_10 0.738618 0.697953 0.587289 0.544814 0.465501 0.497573
P_10 0.446886 0.486368 0.518273 0.655589 0.738710 0.863704
P_10 0.989682 1.082584 1.256600 1.317567 1.408379 1.334916
P_10 1.400159 1.588766 1.383297 1.482818 1.477089 1.410282
P_10 1.130888 1.276118 1.141864 1.218407 1.138333 1.100692
P_10 1.079536 1.120780 1.082835 1.111938 1.047549 1.121293
P_10 1.077654 1.110867 1.058091 1.196969 1.170377 1.097480
P_10 1.140294 1.067865 1.034584 1.019007 0.855015 0.884387
P_10 0.784781 0.597790 0.593908 0.593568 0.518830 0.525106
P_10 0.515431 0.514563 0.476254 0.523776 0.605953 0.631761
P_10 0.659951 0.811734 0.814505 0.952860 0.938846 1.019314
P_10 1.144008 1.151196 1.252517 1.176472 1.147290 1.239542
P_10 1.187138 1.103498 1.152339 1.172305 1.110089 1.115863
P_10 1.120577 1.116214 1.201916 1.096477 1.084470 1.175952
P_10 1.054275 1.031140 1.108511 0.981759 1.079993 1.035372
P_10 0.920901 0.983327 0.833212 0.746465 0.786710 0.723037
P_10 0.651898 0.578553 0.583610 0.506670 0.569110 0.517575
P_10 0.513496 0.440780 0.500049 0.446151 0.471495 0.559432
P_10 0.557506 0.575968 0.675295 0.739485 0.812887 0.880516
P_10 0.895906 0.969348 1.224988 1.056686 1.123989 1.211402
P_10 1.155578 1.206346 1.152763 1.047502 1.000425 1.099764
P_10 0.959426 1.030642 0.966547 1.031275 0.898405 0.963745
P_10 0.976225 1.076555 1.163684 0.955149 1.101949 1.030650
P_10 1.059527 0.945458 0.914161 0.854001 0.815889 0.775623
P_10 0.661232 0.624283 0.505277 0.489742 0.451120 0.467066
P_10 0.421014 0.452004 0.451678 0.565591 0.637473 0.735428
P_10 0.807106 0.871151 0.968655 1.062317 1.199751 1.347386
P_10 1.336604 1.333253 1.374731 1.353172 1.429521 1.375471
P_10 1.338849 1.188670 1.218798 1.019266 1.025427 0.949944
P_10 0.954321 1.016980 1.026235 0.984316 1.032413 1.066275
P_10 1.092344 1.176076 1.124645 1.114716 1.157069 1.150907
P_10 1.176441 0.986727 1.097403 0.969352 0.946770 0.811504
P_10 0.741861 0.553215 0.583458 0.554031 0.515719 0.428763
P_10 0.435158 0.459034 0.497655 0.629495 0.625123 0.713825
P_10 0.776647 0.873420 1.044729 1.041236 1.155224 1.286091
P_10 1.377523 1.335680 1.329287 1.246149 1.250009 1.199342
P_10 1.274169 1.220946 1.171634 1.082827 1.016736 0.999053
P_10 1.031930 0.938967 1.047576 0.947945 1.040441 1.108150
P_10 1.044399 1.165334 1.095856 1.256471 1.303424 1.117150
P_10 1.230054 0.997184 1.061196 1.020660 0.938986 0.804324
P_10 0.752609 0.616921 0.553054 0.486336 0.455860 0.456996
P_10 0.383151 0.496835 0.542643 0.630859 0.693942 0.736133
P_10 0.926005 0.862247 1.045494 1.094441 1.111355 1.221370
P_10 1.277510 1.265227 1.282649 1.312647 1.350080 1.205255
P_10 1.343647 1.249294 1.240683 1.169263 1.075951 1.026703
P_10 1.059046 1.090697 1.092636 0.978040 1.106619 1.201106
P_10 1.089721 1.221325 1.141490 1.268770 1.201782 1.171923
P_10 1.126646 1.055852 1.034406 0.950303 0.817036 0.817669
P_10 0.667098 0.637788 0.584064 0.487197 0.435161 0.448687
P_10 0.449414 0.484113 0.515715 0.589635 0.678319 0.734677
P_10 0.840507 0.971840 1.060747 1.088352 1.244719 1.230683
P_10 1.287827 1.320881 1.228357 1.420145 1.287251 1.302694
P_10 1.190512 1.139967 1.151280 1.137597 1.185076 0.962519
P_10 1.104446 1.020174 1.062961 1.107502 1.070612 1.111239
P_10 1.176655 1.087487 1.131102 1.127109 1.093451 1.176228
P_10 1.219566 1.083530 0.974021 0.902438 0.916069 0.852154
P_10 0.724712 0.657588 0.608470 0.522121 0.460670 0.507629
P_10 0.466013 0.536485 0.587457 0.633522 0.760579 0.798656
P_10 0.906492 1.162162 1.180148 1.252665 1.351239 1.440050
P_10 1.525441 1.490646 1.458136 1.432093 1.603985 1.386628
P_10 1.260071 1.285919 1.245909 1.207455 1.069653 1.147363
P_10 1.014512 1.101535 1.074900 1.145016 1.120129 1.131328
P_10 1.168787 1.051780 1.147593 1.175732 1.192461 1.136360
P_10 1.100293 1.041968 1.084845 0.945066 0.959234 0.820787
P_10 0.794819 0.732099 0.634584 0.656896 0.508284 0.503475
P_10 0.494032 0.515891 0.487988 0.537279 0.584200 0.600401
P_10 0.684218 0.768693 0.823085 0.966721 0.975210 1.056314
P_10 1.188180 1.222585 1.279172 1.223207 1.283200 1.159727
P_10 1.294209 1.207819 1.240715 1.205478 1.198834 1.160317
P_10 1.105878 1.140028 1.247399 0.975537 1.194288 1.112672
P_10 1.126156 1.055374 1.098091 1.078496 1.006143 0.944655
P_10 1.073101 0.868571 0.879127 0.817350 0.772365 0.756919
P_10 0.681682 0.649603 0.632344 0.562890 0.577547 0.525336
P_10 0.468124 0.528466 0.458818 0.472993 0.480123 0.455167
P_10 0.591279 0.620948 0.733498 0.688366 0.820077 0.949668
P_10 0.919379 1.064754 1.156907 1.075491 1.130984 1.266215
P_10 1.132823 1.177399 1.101367 1.088114 1.114114 1.119631
P_10 0.978040 0.974912 0.975396 0.984105 0.964209 1.064188
P_10 1.043692 1.116762 1.086908 1.096265 1.071222 0.978867
P_10 1.038676 0.986004 0.974559 0.900942 0.759141 0.750057
P_10 0.670980 0.636209 0.498139 0.492906 0.485337 0.414309
P_10 0.444830 0.479174 0.519621 0.550027 0.610467 0.714671
P_10 0.758507 0.916381 1.061549 1.115259 1.295420 1.318431
P_10 1.369632 1.417001 1.451796 1.441255 1.509607 1.456649
P_10 1.345930 1.308038 1.108192 1.157421 1.018415 0.980730
P_10 0.995362 1.017047 1.000925 0.961303 1.060725 1.074493
P_10 0.970481 1.202760 1.075371 1.207562 1.283121 1.126934
P_10 1.143782 1.149363 1.035315 0.990122 0.921559 0.864000
P_10 0.747956 0.653697 0.577797 0.513470 0.483744 0.485125
P_10 0.446133 0.444007 0.544498 0.570721 0.654156 0.751892
P_10 0.870913 0.978842 1.170143 1.105947 1.063808 1.317783
P_10 1.302509 1.331201 1.373360 1.377258 1.376836 1.307835
P_10 1.165335 1.220624 1.106977 1.171423 1.094520 1.016626
P_10 0.973700 1.021439 1.007944 1.013379 1.099251 1.108970
P_10 1.068782 1.123189 1.189735 1.312568 1.117713 1.191716
P_10 1.179524 1.076954 1.145583 1.028046 0.933933 0.832910
P_10 0.749282 0.647309 0.545550 0.462848 0.430875 0.451840
P_10 0.424660 0.479236 0.545471 0.583859 0.693464 0.811284
P_10 0.941159 0.872823 1.120768 1.115804 1.223826 1.175601
P_10 1.280228 1.344274 1.311749 1.364921 1.253550 1.300211
P_10 1.370888 1.308563 1.298921 1.146248 1.262294 1.080461
P_10 1.073092 1.083385 1.143839 1.118747 1.090927 1.121030
P_10 1.230121 1.186871 1.148846 1.331501 1.287873 1.197491
P_10 1.227507 1.183284 1.072091 1.031802 0.880602 0.752372
P_10 0.788914 0.703641 0.564704 0.541700 0.498114 0.420486
P_10 0.447772 0.496232 0.534566 0.577409 0.736168 0.808909
P_10 0.882646 0.893325 1.102815 1.095906 1.253698 1.250673
P_10 1.255849 1.338767 1.306663 1.275113 1.245290 1.255829
P_10 1.129462 1.231531 1.044464 1.119593 1.086308 1.122463
P_10 1.083545 1.142832 1.032953 1.025647 1.045952 1.186571
P_10 1.151632 1.190109 1.201750 1.252466 1.256471 1.280458
P_10 1.206366 1.233538 1.050456 1.040970 0.973064 0.883611
P_10 0.820732 0.657577 0.586193 0.561027 0.517029 0.456452
P_10 0.521880 0.481083 0.564842 0.618031 0.796618 0.866531
P_10 1.045655 1.104589 1.150993 1.371782 1.455699 1.547094
P_10 1.466700 1.431498 1.607105 1.484751 1.614096 1.348721
P_10 1.228112 1.328363 1.184106 1.265217 1.186871 1.103391
P_10 1.121943 1.124967 1.032043 1.161599 1.067508 1.172526
P_10 1.146868 1.356423 1.290129 1.081010 1.113201 1.176263
P_10 1.041600 1.149116 1.083485 1.033982 1.000541 0.902540
P_10 0.825511 0.733632 0.669513 0.572210 0.518618 0.463132
P_10 0.500376 0.492206 0.508063 0.558706 0.628484 0.624243
P_10 0.697804 0.700259 0.900469 0.997177 1.017661 0.954951
P_10 1.128427 1.174845 1.123180 1.332779 1.317346 1.213469
P_10 1.275883 1.176797 1.174912 1.205402 1.231415 1.144167
P_10 1.063215 1.194455 1.174215 1.186757 1.146409 1.196287
P_10 1.169260 1.248121 1.048228 1.177649 1.097109 1.113883
P_10 0.957120 0.972113 0.922705 0.767211 0.852522 0.774950
P_10 0.732987 0.695491 0.698746 0.594001 0.621009 0.511478
P_10 0.517403 0.506380 0.486711 0.457395 0.466326 0.572045
P_10 0.562612 0.553954 0.654587 0.746865 0.878291 0.853672
P_10 0.960045 1.038309 1.165194 1.100741 1.072526 1.200675
P_10 1.276248 1.108595 1.132866 1.200847 1.073828 1.081407
P_10 1.105381 1.006206 0.898974 1.118674 1.076173 0.949310
P_10 1.069921 1.134644 1.054932 1.069909 1.069492 1.035701
P_10 1.072332 1.003757 0.873230 0.900236 0.877609 0.726584
P_10 0.660115 0.593308 0.561250 0.505693 0.472854 0.435958
P_10 0.483513 0.464033 0.561787 0.547334 0.655288 0.704221
P_10 0.853048 0.903043 1.122307 1.080485 1.274664 1.171185
P_10 1.476303 1.463191 1.440153 1.496139 1.490367 1.378779
P_10 1.341700 1.277927 1.254345 1.095215 1.069965 1.054186
P_10 0.989938 1.061351 0.990889 1.126544 1.030415 1.035825
P_10 1.147540 1.162031 1.230020 1.098964 1.177108 1.179937
P_10 1.207521 1.107941 1.133386 1.088685 0.919316 0.809965
P_10 0.774962 0.701604 0.569804 0.573936 0.488809 0.472365
P_10 0.446268 0.547478 0.495003 0.593845 0.668271 0.753871
P_10 0.839975 0.964364 1.043836 1.138912 1.216924 1.216191
P_10 1.267698 1.364351 1.324930 1.377364 1.289368 1.233464
P_10 1.200972 1.204174 1.231638 1.034549 1.211043 1.101455
P_10 1.005416 1.050133 1.124092 1.091916 1.111756 1.060957
P_10 1.216882 1.164008 1.150989 1.344321 1.269956 1.321691
P_10 1.147006 1.167120 1.004404 1.022224 0.966479 0.905484
P_10 0.705898 0.639262 0.547262 0.508988 0.489345 0.495456
P_10 0.482638 0.527613 0.578381 0.584984 0.704232 0.710140
P_10 0.879703 0.880032 0.991885 1.206826 1.162203 1.258514
P_10 1.262148 1.426475 1.266078 1.413917 1.293097 1.446571
P_10 1.351666 1.325508 1.186721 1.144423 1.228538 1.193582
P_10 1.107726 1.099002 1.118274 1.114387 1.168785 1.119903
P_10 1.143880 1.150757 1.216671 1.174459 1.314407 1.205543
P_10 1.310812 1.139614 1.037683 0.979235 0.963143 0.948030
P_10 0.731943 0.621116 0.610106 0.541203 0.500522 0.464972
P_10 0.466070 0.468393 0.531806 0.583072 0.691301 0.766960
P_10 0.907754 0.941385 1.031960 1.234778 1.311061 1.393372
P_10 1.300514 1.272920 1.414228 1.301098 1.240059 1.279033
P_10 1.088024 1.169445 1.176361 1.122432 1.112795 1.204949
P_10 1.181949 1.070753 1.140105 1.070254 1.102330 1.110743
P_10 1.133540 1.180129 1.216569 1.216865 1.250695 1.136934
P_10 1.155284 1.173778 1.061958 1.095506 0.987200 0.897285
P_10 0.776123 0.702958 0.654152 0.529584 0.495431 0.510455
P_10 0.516444 0.524787 0.566189 0.670495 0.742239 0.912181
P_10 1.098164 1.079445 1.145697 1.340441 1.471503 1.545788
P_10 1.515198 1.490943 1.713824 1.452992 1.499548 1.413450
P_10 1.454985 1.301892 1.425085 1.231150 1.222492 1.170495
P_10 1.213751 1.093697 1.136674 1.251476 1.215472 1.277815
P_10 1.183642 1.157510 1.210257 1.153368 1.193553 1.266682
P_10 1.142260 1.089850 0.998699 0.965946 0.919815 0.838233
P_10 0.841456 0.803319 0.725440 0.684780 0.613942 0.560312
P_10 0.530614 0.522896 0.533822 0.527328 0.555145 0.706094
P_10 0.752479 0.826060 0.911220 1.031469 1.052700 1.137240
P_10 1.053105 1.208282 1.324655 1.397538 1.286766 1.402306
P_10 1.282764 1.229953 1.142407 1.136286 1.250245 1.291281
P_10 1.194942 1.126006 1.173061 1.144136 1.119882 1.120868
P_10 1.187313 1.175358 1.263919 1.112447 1.119027 1.045653
P_10 1.068626 0.995936 0.842513 0.909059 0.831431 0.763135
P_10 0.777697 0.653090 0.680836 0.565686 0.574161 0.521871
P_10 0.524815 0.468286 0.438810 0.495269 0.506911 0.609660
P_10 0.595629 0.622221 0.702493 0.837642 0.830652 0.978884
P_10 0.901471 1.104517 1.132216 1.138748 1.263397 1.344311
P_10 1.199497 1.185897 1.196592 1.158438 1.016467 1.142405
P_10 1.095384 1.133102 0.978211 1.098571 1.070848 1.141852
P_10 1.045532 1.114598 1.230545 1.129738 1.176918 1.143470
P_10 1.086544 1.144925 1.006249 0.940398 0.846759 0.741168
P_10 0.678338 0.618165 0.539836 0.528937 0.508238 0.482753
P_10 0.448400 0.458471 0.527724 0.524862 0.676732 0.723379
P_10 0.839505 0.962826 1.129185 1.175160 1.282567 1.290095
P_10 1.260222 1.327742 1.457941 1.334424 1.508671 1.326736
P_10 1.378612 1.275180 1.269689 1.202761 1.138598 1.047879
P_10 0.941620 1.054707 0.977718 1.048540 1.092083 1.118560
P_10 1.146872 1.154237 1.125543 1.112539 1.130001 1.244252
P_10 1.150449 1.130965 1.127766 1.100165 1.011737 0.875990
P_10 0.813401 0.655164 0.598622 0.568216 0.463003 0.499163
P_10 0.495686 0.511175 0.550155 0.589729 0.682480 0.894409
P_10 0.921720 0.868684 1.052875 1.093832 1.202035 1.334056
P_10 1.390352 1.526150 1.288258 1.429151 1.273870 1.179892
P_10 1.341290 1.257427 1.229775 1.124908 1.105677 1.004944
P_10 0.993368 1.068862 1.084468 1.134102 1.075184 1.109277
P_10 1.194830 1.177996 1.332970 1.307568 1.227466 1.252084
P_10 1.254958 1.225601 1.107845 1.056507 1.014606 0.857865
P_10 0.711862 0.615785 0.587460 0.528166 0.471770 0.434050
P_10 0.503113 0.528280 0.560576 0.641581 0.722485 0.814135
P_10 0.919053 0.999908 1.071796 1.045239 1.223786 1.242288
P_10 1.342005 1.341513 1.469811 1.421924 1.542361 1.349422
P_10 1.384272 1.374761 1.244430 1.056083 1.117316 1.101393
P_10 1.087944 1.172307 1.101658 1.099759 1.133440 1.144987
P_10 1.213697 1.063325 1.168090 1.159346 1.227249 1.240970
P_10 1.213381 1.205928 1.199355 0.954556 0.899016 0.867131
P_10 0.780444 0.681918 0.596542 0.535268 0.494716 0.454128
P_10 0.435685 0.508006 0.551723 0.619884 0.708571 0.777628
P_10 0.868004 1.090677 1.023841 1.184639 1.297805 1.448502
P_10 1.364113 1.397953 1.411248 1.374610 1.300817 1.241835
P_10 1.395085 1.299918 1.199135 1.275793 1.103059 1.025464
P_10 1.155569 1.073456 1.212682 1.104359 1.151981 1.147300
P_10 1.232357 1.254710 1.139689 1.107867 1.360724 1.223550
P_10 1.232402 1.204152 1.127621 0.940627 1.004078 1.011636
P_10 0.858317 0.718256 0.629265 0.576907 0.521427 0.529888
P_10 0.490726 0.550157 0.590993 0.677403 0.779629 0.871828
P_10 1.048307 1.188220 1.314253 1.371349 1.436280 1.396227
P_10 1.598166 1.675662 1.512966 1.496591 1.554635 1.497532
P_10 1.395259 1.272716 1.287938 1.190386 1.172242 1.230798
P_10 1.207354 1.101546 1.143778 1.247342 1.162663 1.076167
P_10 1.267060 1.311914 1.241236 1.288035 1.193138 1.144068
P_10 1.125345 1.037742 1.149397 1.064695 0.995429 0.882671
P_10 0.816078 0.784866 0.763217 0.669519 0.646336 0.506743