; Filename: networks/Net1.inp
; WNTR: 0.1.6
; Created: 2019-04-09 13:20:27
[TITLE]
EPANET Example Network 1
A simple example of modeling chlorine decay. Both bulk and
wall reactions are included.

[JUNCTIONS]
;ID                      Elevation       Demand Pattern                 
 10                               710               0                            ;
 11                               710               0                            ;
 12                               700               0                            ;
 13                               695               0                            ;
 21                               700               0                            ;
 22                               695               0                            ;
 23                               690               0                            ;
 31                               700               0                            ;
 32                               710               0                            ;

[RESERVOIRS]
;ID                                   Head                  Pattern
 9                                800                            ;

[TANKS]
;ID                              Elevation           Init Level            Min Level            Max Level             Diameter           Min Volume Volume Curve        
 2                                850             120             100             150            50.5               0                        ;

[PIPES]
;ID                   Node1                Node2                              Length             Diameter            Roughness           Minor Loss               Status
 10                   10                   11                             10530              18             100               0                 Open   ;
 11                   11                   12                              5280              14             100               0                 Open   ;
 12                   12                   13                              5280              10             100               0                 Open   ;
 21                   21                   22                              5280              10             100               0                 Open   ;
 22                   22                   23                              5280              12             100               0                 Open   ;
 31                   31                   32                              5280               6             100               0                 Open   ;
 110                  2                    12                               200              18             100               0                 Open   ;
 111                  11                   21                              5280              10             100               0                 Open   ;
 112                  12                   22                              5280              12             100               0                 Open   ;
 113                  13                   23                              5280               8             100               0                 Open   ;
 121                  21                   31                              5280               8             100               0                 Open   ;
 122                  22                   32                              5280               6             100               0                 Open   ;

[PUMPS]
;ID                   Node1                Node2                Properties          
 9                    9                    10                   HEAD     1                      ;

[VALVES]
;ID                   Node1                Node2                            Diameter Type              Setting           Minor Loss

[TAGS]
;type      name       tag       

[DEMANDS]
;ID        Demand     Pattern   
10         0.0        P_10      
11         150.0      P_11      
12         150.0      P_12      
13         100.0      P_13      
21         150.0      P_21      
22         200.0      P_22      
23         150.0      P_23      
31         100.0      P_31      
32         100.0      P_32      

[STATUS]
;ID        Setting   
[PATTERNS]
;ID        Multipliers

1 1.000000 1.200000 1.400000 1.600000 1.400000 1.200000
1 1.000000 0.800000 0.600000 0.400000 0.600000 0.800000

P_10 0.613001 0.538990 0.499020 0.435171 0.426319 0.414908
P_10 0.394132 0.441665 0.493079 0.505009 0.541178 0.648149
P_10 0.696786 0.819962 1.033379 1.015848 1.128745 1.135723
P_10 1.250075 1.391836 1.297564 1.232011 1.152238 1.209498
P_10 1.234217 1.106738 1.177911 0.924985 0.994165 1.051503
P_10 0.850625 0.927527 0.995145 0.938623 0.973793 0.925752
P_10 1.040478 1.035580 1.102008 1.028999 1.021095 1.167263
P_10 1.027081 0.922196 1.002123 0.931123 0.765953 0.726930
P_10 0.685067 0.584079 0.542637 0.477371 0.430965 0.379876
P_10 0.419526 0.409539 0.506444 0.538935 0.618627 0.738435
P_10 0.707811 0.890403 0.927027 1.020232 1.085446 1.106431
P_10 1.213300 1.213539 1.165404 1.253830 1.234020 1.137334
P_10 1.182774 1.062575 1.039755 1.105481 1.085193 0.852666
P_10 0.957868 0.917115 0.898617 1.049881 0.827684 0.937988
P_10 0.997417 1.127164 1.056358 1.058496 1.136041 1.050867
P_10 1.126066 1.087241 0.960940 0.901743 0.783373 0.760716
P_10 0.636637 0.525316 0.502896 0.477500 0.449729 0.410215
P_10 0.405664 0.475458 0.542607 0.582222 0.656271 0.724159
P_10 0.868128 0.915129 0.994269 1.002450 1.178397 1.086873
P_10 1.213857 1.294933 1.215305 1.272696 1.196573 1.122325
P_10 1.312612 1.149104 0.961414 1.054945 0.939231 1.029579
P_10 0.972282 1.032105 0.996158 0.998497 0.994734 0.983278
P_10 0.927094 1.102017 1.078787 1.067035 1.077220 1.001469
P_10 1.100961 0.919295 0.923465 0.838840 0.803234 0.778727
P_10 0.628415 0.620665 0.550236 0.470176 0.413000 0.413722
P_10 0.388897 0.423297 0.493338 0.558262 0.621525 0.692085
P_10 0.813794 0.951622 1.014850 1.107553 1.192293 1.126978
P_10 1.141120 1.208035 1.180269 1.221422 1.074956 1.271429
P_10 1.097580 1.087741 1.014381 1.054898 0.944670 0.979031
P_10 0.975255 0.988153 1.007324 0.964024 1.109043 1.007475
P_10 1.120759 1.127906 1.055022 1.131919 1.020767 1.034741
P_10 0.997366 0.993566 0.926934 0.897783 0.861613 0.811970
P_10 0.615966 0.594546 0.535075 0.474739 0.439209 0.393544
P_10 0.397583 0.465127 0.521475 0.562901 0.635097 0.815916
P_10 0.879147 0.914675 1.087303 1.152251 1.134131 1.266047
P_10 1.149291 1.368739 1.296180 1.463949 1.210980 1.216097
P_10 1.183855 1.137952 1.192719 1.120303 1.056745 0.963141
P_10 1.055006 1.121164 1.025320 1.096910 1.069585 1.041145
P_10 1.029792 1.096546 1.040278 1.018691 0.969758 1.023464
P_10 1.042097 0.917871 0.897198 0.890301 0.880045 0.739555
P_10 0.712343 0.646777 0.650963 0.526260 0.505587 0.484066
P_10 0.442107 0.465750 0.399255 0.516070 0.531058 0.553777
P_10 0.666031 0.754035 0.740745 0.873739 0.924895 1.082900
P_10 1.029010 1.098775 1.141076 1.132799 1.192871 1.129828
P_10 1.198355 1.079501 1.119630 1.031175 1.006453 1.040656
P_10 0.945324 1.034239 1.019643 1.043086 1.038857 1.052099
P_10 1.016365 0.992500 1.036873 0.992770 1.023862 1.015842
P_10 0.903444 0.873944 0.821601 0.765953 0.710273 0.709536
P_10 0.642881 0.594671 0.572130 0.497910 0.520531 0.455210
P_10 0.498470 0.428826 0.441166 0.454664 0.467311 0.516214
P_10 0.530936 0.584839 0.632106 0.724210 0.786721 0.881407
P_10 1.021365 0.870134 1.071840 1.062262 0.973635 0.956472
P_10 1.052001 1.125570 1.070031 0.941761 0.884639 0.906444
P_10 0.957444 0.910021 0.950635 0.931008 0.959103 0.899401
P_10 1.015377 0.945996 0.983994 1.076557 1.030068 1.001858
P_10 0.898769 0.937672 0.857768 0.815821 0.714909 0.713482
P_10 0.624271 0.552866 0.512886 0.460526 0.431023 0.411776
P_10 0.421042 0.429022 0.459503 0.499878 0.598055 0.656879
P_10 0.735061 0.848002 1.009662 1.024401 1.152487 1.194665
P_10 1.283153 1.386582 1.205841 1.362523 1.150100 1.400776
P_10 1.277859 1.314391 1.062762 0.969170 1.031345 1.017212
P_10 0.844306 0.942849 0.834689 0.904384 1.022848 0.959051
P_10 0.927919 1.188110 1.096566 1.102239 1.081525 1.085499
P_10 1.100244 1.083550 0.839637 0.893605 0.811268 0.694568
P_10 0.679085 0.574283 0.508773 0.472590 0.474527 0.399114
P_10 0.389713 0.411099 0.483218 0.496532 0.598852 0.681707
P_10 0.824255 0.783516 0.917806 0.991305 1.078251 1.063122
P_10 1.263052 1.213552 1.286731 1.233727 1.288291 1.339662
P_10 1.143715 1.090900 1.094153 1.053240 1.004637 0.969175
P_10 0.926883 0.996658 0.977898 0.863196 0.892052 0.952054
P_10 0.982586 0.998606 1.135425 1.128365 1.184752 1.208466
P_10 1.059835 0.979287 0.978044 0.934287 0.795307 0.675200
P_10 0.674083 0.522163 0.501129 0.483301 0.448161 0.397850
P_10 0.399122 0.485852 0.496798 0.599716 0.631832 0.747244
P_10 0.743572 0.883960 0.834736 1.079949 1.136656 1.169205
P_10 1.357986 1.320072 1.150192 1.064922 1.201444 1.328680
P_10 1.171354 1.132515 1.164125 1.131378 1.087938 1.108087
P_10 1.072603 1.002630 1.006412 1.052962 1.032442 1.053358
P_10 1.026137 1.109133 1.102691 1.099484 1.076591 1.055301
P_10 1.080426 1.038930 0.980659 0.887714 0.820389 0.670033
P_10 0.653551 0.585076 0.564189 0.453298 0.416571 0.416097
P_10 0.382639 0.414111 0.471020 0.590732 0.629284 0.750669
P_10 0.821692 0.993734 0.898086 1.090223 1.103655 1.174148
P_10 1.224421 1.297647 1.384195 1.219543 1.121833 1.182347
P_10 1.124172 1.105221 0.974161 1.075393 0.968237 0.993032
P_10 0.960957 1.069397 0.917488 1.125021 0.874684 1.010829
P_10 1.095246 1.032825 1.165349 1.156670 1.122882 1.064809
P_10 1.125426 0.982842 0.912959 0.832654 0.876990 0.699399
P_10 0.671871 0.598094 0.550888 0.457193 0.457387 0.432866
P_10 0.418520 0.475178 0.568967 0.596409 0.679485 0.821768
P_10 0.972603 1.059334 1.202320 1.072213 1.226469 1.413181
P_10 1.263780 1.323197 1.434723 1.408140 1.453194 1.380604
P_10 1.299291 1.261297 1.104076 1.036280 1.014847 1.108297
P_10 1.012271 0.927470 0.985764 1.066636 1.020754 1.086851
P_10 1.002943 1.082975 1.136927 1.130533 1.075200 1.003326
P_10 1.051161 1.024924 0.961518 0.865934 0.840414 0.802898
P_10 0.702654 0.637788 0.576608 0.590916 0.524701 0.511728
P_10 0.482042 0.490372 0.471542 0.507946 0.542496 0.591339
P_10 0.656966 0.705533 0.884667 0.875607 0.998324 0.972425
P_10 1.073509 1.180566 1.157811 1.211303 1.189972 1.130888
P_10 1.048036 1.172926 1.033841 1.034365 1.170084 1.034250
P_10 1.046170 1.113898 1.054140 1.053738 1.107402 0.979386
P_10 1.076654 1.000250 0.980341 0.957454 1.031043 1.035592
P_10 0.908940 0.882175 0.856640 0.793419 0.723414 0.712220
P_10 0.680013 0.595057 0.590640 0.570484 0.526259 0.456875
P_10 0.443486 0.454210 0.454877 0.466869 0.509734 0.511637
P_10 0.564416 0.630873 0.690137 0.704982 0.779302 0.865559
P_10 0.865445 1.034484 1.045750 0.984960 1.080677 1.061814
P_10 1.101713 1.095979 1.101810 0.975947 0.982533 0.996234
P_10 0.963310 0.912257 0.897277 0.935166 1.012091 0.925185
P_10 1.006496 0.996867 0.953272 1.033207 0.994911 0.992751
P_10 1.003085 0.968183 0.909277 0.823956 0.742374 0.631142
P_10 0.607660 0.584154 0.520453 0.502722 0.403664 0.402638
P_10 0.400142 0.406337 0.430472 0.551135 0.618338 0.625960
P_10 0.851582 0.910986 0.993319 1.123676 1.212550 1.151288
P_10 1.221758 1.283076 1.345479 1.305970 1.282335 1.219127
P_10 1.291194 1.147547 1.063647 1.071741 1.109061 0.934877
P_10 0.984521 0.968868 0.878413 0.923998 0.895994 0.971605
P_10 0.977096 0.980126 1.066747 1.056079 1.108039 1.049138
P_10 0.968424 0.999953 0.895974 1.013162 0.845239 0.814676
P_10 0.669147 0.566980 0.556615 0.421414 0.463426 0.400897
P_10 0.412963 0.436438 0.506954 0.578299 0.618718 0.692527
P_10 0.816949 0.867618 1.033484 1.018151 1.145465 1.100597
P_10 1.252928 1.313030 1.218649 1.292148 1.322008 1.187981
P_10 1.134129 1.201162 1.143116 1.121184 1.124314 1.014318
P_10 1.052362 0.951306 0.920741 0.932016 0.860845 1.034639
P_10 1.011773 1.084563 1.131634 1.193784 1.095988 1.159726
P_10 1.025944 1.111544 1.001636 0.924542 0.846217 0.801948
P_10 0.716901 0.614547 0.536039 0.486777 0.442991 0.448721
P_10 0.451216 0.451493 0.487177 0.581822 0.591383 0.748090
P_10 0.844180 0.765730 1.030406 1.064769 1.052164 1.154120
P_10 1.262164 1.262503 1.289375 1.221586 1.197420 1.236988
P_10 1.267292 1.090596 1.113709 1.243367 1.163244 0.987808
P_10 0.951983 0.996709 1.027935 1.009063 1.006308 1.157860
P_10 1.075854 0.979639 1.077132 1.266323 1.161770 1.036445
P_10 1.138219 1.052860 0.992853 0.877854 0.821030 0.788299
P_10 0.687054 0.566805 0.523631 0.448420 0.444035 0.396547
P_10 0.452014 0.442223 0.486960 0.558845 0.707247 0.799820
P_10 0.827356 0.884580 0.939943 1.069818 1.122298 1.141378
P_10 1.113863 1.341159 1.476050 1.242681 1.311105 1.175970
P_10 1.153433 1.113484 1.153117 0.938007 0.993330 1.014673
P_10 0.981286 1.113841 1.062354 0.936720 0.959996 1.160120
P_10 1.123562 1.023423 1.142603 1.096457 1.102145 1.158227
P_10 1.101234 1.041821 1.024618 0.957509 0.910233 0.779604
P_10 0.677224 0.618014 0.514875 0.552125 0.429882 0.456768
P_10 0.430489 0.465075 0.504349 0.613376 0.688012 0.808385
P_10 0.969283 1.121269 1.145112 1.217918 1.396377 1.276498
P_10 1.464503 1.436788 1.490977 1.488467 1.358235 1.218290
P_10 1.217803 1.274266 1.244372 1.118916 1.206555 1.092258
P_10 1.025676 1.058739 1.089456 1.161502 1.052098 1.128928
P_10 1.059259 1.115659 1.150938 1.136179 1.075965 1.052724
P_10 0.970268 1.023725 0.935637 0.815728 0.907997 0.844030
P_10 0.731158 0.634194 0.651027 0.568088 0.510345 0.491195
P_10 0.484482 0.481730 0.484580 0.500016 0.595110 0.585120
P_10 0.633086 0.765958 0.838457 0.914874 0.953149 1.063192
P_10 1.077395 1.188415 1.144350 1.254356 1.315664 1.216351
P_10 1.268993 1.148550 1.112997 1.057996 1.189777 1.157243
P_10 1.019369 0.995226 1.106944 1.121513 1.018324 1.069746
P_10 0.952882 1.061801 1.136682 1.048988 0.986559 1.011775
P_10 0.990833 0.845084 0.820497 0.795737 0.777980 0.757054
P_10 0.660126 0.671660 0.599870 0.532562 0.495005 0.467811
P_10 0.433181 0.499015 0.478385 0.432287 0.508491 0.545336
P_10 0.588455 0.639769 0.632055 0.779370 0.832788 0.883497
P_10 0.911500 0.967970 1.175507 1.037901 1.017439 1.116082
P_10 1.076329 1.010751 1.112538 1.114146 0.980163 1.097619
P_10 0.917261 0.913254 1.055002 0.994780 0.909405 1.058484
P_10 1.047068 1.027371 1.043634 1.025451 1.019616 1.066469
P_10 0.989233 0.927582 0.867221 0.863993 0.735713 0.675845
P_10 0.640825 0.578988 0.533934 0.496576 0.482760 0.417535
P_10 0.407064 0.476563 0.511737 0.554794 0.651029 0.743633
P_10 0.803624 0.902482 0.993104 1.068536 1.228283 1.099929
P_10 1.328209 1.370873 1.447812 1.263599 1.261086 1.463575
P_10 1.274353 1.175187 0.986147 1.064830 1.178612 1.040388
P_10 0.969180 0.884085 0.895894 0.910784 1.074907 0.996559
P_10 1.052506 1.125608 1.082013 1.063430 1.053950 1.159445
P_10 1.037174 1.083581 0.992705 0.940332 0.835916 0.732530
P_10 0.681285 0.596509 0.564751 0.476146 0.490609 0.402050
P_10 0.413337 0.479573 0.468582 0.586109 0.617405 0.709233
P_10 0.756219 0.921691 0.990609 1.170686 1.101760 1.175632
P_10 1.237381 1.323439 1.304962 1.370572 1.209358 1.166792
P_10 1.213994 1.085762 1.124363 1.125612 1.007271 1.010069
P_10 0.994481 0.982256 0.990718 1.027599 1.034624 1.044854
P_10 1.009216 1.166019 1.108234 1.230689 1.133252 1.035099
P_10 1.054996 1.106045 0.953042 1.043644 0.840374 0.840208
P_10 0.643913 0.597810 0.512373 0.472402 0.438928 0.425142
P_10 0.461857 0.500330 0.569752 0.581779 0.675683 0.682247
P_10 0.770132 0.927097 1.006485 1.073538 1.120692 1.191137
P_10 1.254836 1.209494 1.267677 1.417574 1.333869 1.253954
P_10 1.225139 1.223985 1.296184 1.168927 1.089387 1.085570
P_10 1.046537 1.108881 1.052485 1.098972 1.042741 1.107331
P_10 1.131507 0.986061 1.045578 1.099109 0.991092 1.071700
P_10 1.152141 1.069400 0.993908 0.983112 0.840512 0.800217
P_10 0.664623 0.580584 0.566223 0.422792 0.470787 0.427406
P_10 0.401094 0.445912 0.516157 0.592711 0.654258 0.775652
P_10 0.863675 0.951040 1.075009 1.091276 1.132018 1.148852
P_10 1.320202 1.238419 1.329152 1.252955 1.190681 1.278604
P_10 1.193613 1.099550 1.108167 1.102942 1.026789 1.051310
P_10 1.115793 1.100616 1.073537 0.949138 0.985179 1.073454
P_10 1.151353 1.114844 1.130178 1.230119 1.078933 1.119093
P_10 1.075161 1.033297 1.113005 0.917508 0.845915 0.797025
P_10 0.740159 0.696753 0.574982 0.525738 0.514098 0.466926
P_10 0.535090 0.497319 0.540544 0.649946 0.723983 0.860145
P_10 0.982146 1.039288 1.146105 1.337380 1.419017 1.425144
P_10 1.528859 1.471993 1.405890 1.454494 1.468340 1.402137
P_10 1.331181 1.339530 1.206320 1.203603 1.099530 1.141002
P_10 1.258276 1.061645 1.173723 1.069857 1.130461 1.189004
P_10 1.050161 1.129135 1.057696 0.992761 1.085043 1.071273
P_10 1.063659 1.047070 0.922360 0.900297 0.803857 0.811212
P_10 0.726362 0.685581 0.620383 0.603028 0.578065 0.520325
P_10 0.515393 0.477337 0.504542 0.530335 0.541725 0.634001
P_10 0.691639 0.758843 0.833916 0.867355 1.027501 1.106875
P_10 1.055524 1.188434 1.249507 1.228085 1.104880 1.211698
P_10 1.266449 1.247030 1.089044 1.180411 1.169676 1.240813
P_10 1.123890 1.106867 1.029627 1.056462 1.112779 1.114231
P_10 1.182225 1.143944 1.086758 1.001643 1.051283 1.027181
P_10 0.985598 0.960200 0.844431 0.737779 0.824811 0.791003
P_10 0.673155 0.686430 0.664290 0.542491 0.520179 0.491238
P_10 0.506574 0.461261 0.486552 0.463713 0.448634 0.579102
P_10 0.590702 0.654373 0.698495 0.714997 0.837648 0.875136
P_10 0.974255 1.019999 1.042546 1.069475 1.154740 1.135225
P_10 1.081742 1.086283 1.104196 1.157066 0.953761 1.057177
P_10 0.941559 0.988722 1.059016 1.006504 1.074570 0.905755
P_10 1.119931 1.098064 1.076175 0.993090 1.124432 1.005105
P_10 0.955665 0.969469 0.901274 0.864004 0.789467 0.730233
P_10 0.530408 0.609214 0.565413 0.489970 0.385981 0.442749
P_10 0.420640 0.495873 0.509731 0.531069 0.657529 0.738744
P_10 0.810377 0.869108 0.970640 1.176047 1.237331 1.203560
P_10 1.251188 1.372173 1.417931 1.361494 1.384554 1.430728
P_10 1.307756 1.158522 1.203389 1.223018 0.987615 0.975695
P_10 0.946396 0.929713 0.936951 0.853097 0.893922 1.023735
P_10 1.024937 1.048722 1.237079 1.130401 1.099545 1.113961
P_10 1.137289 1.044936 1.092781 0.913745 0.824376 0.769477
P_10 0.709425 0.632713 0.517563 0.508778 0.450274 0.434241
P_10 0.438163 0.426605 0.509060 0.610166 0.589687 0.697135
P_10 0.804263 0.821090 1.126007 1.088834 1.191551 1.185499
P_10 1.325507 1.213529 1.316635 1.388177 1.313014 1.258502
P_10 1.186100 1.095532 1.153792 1.111478 1.084526 1.048152
P_10 0.967801 0.919359 1.040380 1.019443 1.009542 1.057387
P_10 1.070779 1.034372 1.192519 1.230486 1.134393 1.236036
P_10 1.204030 1.221582 1.039188 0.955593 0.875803 0.788843
P_10 0.704310 0.660492 0.552224 0.568472 0.452477 0.402111
P_10 0.456220 0.474411 0.521600 0.572304 0.672373 0.716342
P_10 0.919223 0.956871 1.061016 1.094562 1.235902 1.330487
P_10 1.208618 1.346360 1.460860 1.399586 1.396432 1.405452
P_10 1.293442 1.243357 1.188644 1.194580 1.129751 1.124068
P_10 1.014411 1.087010 1.079290 1.064907 1.207363 1.011884
P_10 1.068202 1.111387 1.111273 1.167113 1.078664 1.085292
P_10 1.132586 1.024082 0.981543 0.872312 0.832079 0.792891
P_10 0.749952 0.629729 0.580221 0.488777 0.483149 0.453888
P_10 0.493162 0.464939 0.513123 0.549935 0.686742 0.714794
P_10 0.851631 0.953999 1.072530 1.154258 1.335760 1.303733
P_10 1.227972 1.276347 1.271141 1.418326 1.316502 1.291444
P_10 1.213637 1.185852 1.150712 1.111338 1.180592 1.130246
P_10 0.997168 0.989149 1.095492 1.007543 1.012709 1.147901
P_10 1.156703 1.186393 1.199686 1.138941 1.160251 1.072208
P_10 1.136997 1.068507 0.943965 0.967931 0.896525 0.817318
P_10 0.696873 0.642196 0.622184 0.558102 0.451870 0.484136
P_10 0.516225 0.524300 0.572198 0.603332 0.737880 0.931915
P_10 0.991442 1.099435 1.170839 1.350879 1.441488 1.465512
P_10 1.456410 1.443966 1.486163 1.419798 1.425924 1.455207
P_10 1.448630 1.324079 1.175825 1.230648 1.160732 1.192277
P_10 1.092881 1.140526 0.966734 1.180299 1.154019 0.977394
P_10 1.094377 1.028174 1.165484 1.125316 1.152342 1.095498
P_10 1.055230 0.986690 0.968307 0.888062 0.828661 0.790767
P_10 0.785460 0.732902 0.606470 0.639893 0.591209 0.523420
P_10 0.469123 0.455442 0.525959 0.538518 0.574360 0.673915
P_10 0.715120 0.803323 0.886862 0.968183 1.047281 1.087891
P_10 1.132692 1.223456 1.346624 1.252948 1.207039 1.269066
P_10 1.163005 1.236168 1.187235 1.204966 1.196825 1.134101
P_10 1.139770 1.142714 1.081504 1.205955 1.177589 1.160426
P_10 1.132162 1.095009 1.052074 1.050917 1.007368 0.962295
P_10 0.973027 0.920101 0.888440 0.828784 0.810872 0.799775
P_10 0.721298 0.647986 0.607562 0.542934 0.530124 0.541760
P_10 0.458715 0.494420 0.500294 0.504024 0.532157 0.513032
P_10 0.594708 0.642891 0.705333 0.833555 0.824108 0.800150
P_10 1.010132 1.070921 1.110365 1.164845 1.069361 1.188718
P_10 1.107071 1.111838 1.105097 1.121619 1.196650 1.045063
P_10 1.046098 1.015630 1.067435 1.020025 1.002982 0.957160
P_10 1.061550 1.085851 1.074428 1.047386 1.128334 1.064958
P_10 1.124187 0.934544 0.939535 0.886893 0.807482 0.779553
P_10 0.643872 0.593001 0.566247 0.509669 0.441903 0.441389
P_10 0.446718 0.433036 0.532061 0.558740 0.679173 0.792959
P_10 0.809531 0.912140 1.104309 1.112466 1.182320 1.244471
P_10 1.330422 1.500779 1.491358 1.280430 1.392386 1.366659
P_10 1.357142 1.240488 1.193477 1.109270 1.037625 1.049647
P_10 0.923623 0.998675 1.024778 1.032945 1.018001 1.039768
P_10 0.927891 0.967741 1.091247 1.112482 1.209497 1.135592
P_10 1.200427 1.145556 0.937826 0.966770 0.927759 0.788695
P_10 0.747421 0.617299 0.561133 0.513256 0.477439 0.448995
P_10 0.457816 0.473819 0.509330 0.615880 0.610632 0.749095
P_10 0.858080 1.049751 1.067940 1.115759 1.220991 1.194751
P_10 1.339381 1.302685 1.372914 1.322026 1.362628 1.318513
P_10 1.262987 1.339725 1.196228 1.226433 1.029029 1.042069
P_10 1.014705 0.981823 0.965978 1.111102 0.986563 1.090505
P_10 1.115280 1.107221 1.161150 1.271075 1.192835 1.100250
P_10 1.164840 1.016781 1.083955 0.948698 0.912413 0.840716
P_10 0.747229 0.608024 0.569888 0.481307 0.436009 0.464613
P_10 0.475680 0.478946 0.566349 0.611281 0.736432 0.753552
P_10 0.869816 0.872690 1.081114 1.150328 1.236118 1.297908
P_10 1.229127 1.416678 1.374895 1.344587 1.275674 1.371451
P_10 1.244428 1.228357 1.211476 1.226452 1.231136 1.179575
P_10 1.106639 1.065903 1.057292 1.143613 1.136939 1.073649
P_10 1.157195 1.130634 1.089841 1.182333 1.132017 1.164088
P_10 1.208376 1.019207 1.081041 1.055549 0.859536 0.808678
P_10 0.729683 0.652142 0.576336 0.487428 0.479696 0.465534
P_10 0.444280 0.449176 0.509231 0.570606 0.678345 0.869956
P_10 0.893353 1.027573 1.015880 1.251924 1.217280 1.317719
P_10 1.335875 1.307770 1.357222 1.424952 1.466087 1.220431
P_10 1.203669 1.240881 1.113665 1.180858 1.182643 1.102215
P_10 1.000304 1.034765 1.140191 1.160832 1.053773 1.075492
P_10 1.179950 1.151784 1.234704 1.218926 1.124655 1.241698
P_10 1.236078 1.121871 1.049621 1.064875 0.888579 0.829166
P_10 0.796239 0.623969 0.553661 0.523569 0.459530 0.480862
P_10 0.510164 0.532949 0.645054 0.692848 0.805759 0.869568
P_10 1.009081 0.999282 1.201838 1.350271 1.496491 1.459993
P_10 1.614528 1.377264 1.568562 1.505993 1.462623 1.368027
P_10 1.438982 1.275210 1.255791 1.273321 1.202772 1.177222
P_10 1.133588 1.071437 1.283246 1.086718 1.201549 1.187308
P_10 1.086786 1.110084 1.085171 1.122263 1.102358 1.113454
P_10 1.141951 1.081683 1.098124 0.987180 0.912946 0.868938
P_10 0.831678 0.718981 0.637216 0.644035 0.566204 0.494265
P_10 0.522781 0.511464 0.520504 0.533882 0.620582 0.642276
P_10 0.780821 0.861582 0.863290 0.971869 1.062675 1.100253
P_10 1.177733 1.249424 1.337417 1.215999 1.307424 1.327850
P_10 1.326774 1.159616 1.198995 1.179642 1.190391 1.242944
P_10 1.095447 1.121458 1.163821 1.306288 1.199386 1.201391
P_10 1.127249 1.129588 1.126087 1.087862 1.043283 1.093829
P_10 0.864606 1.019443 0.957369 0.855444 0.797171 0.824686
P_10 0.657062 0.631675 0.648349 0.556375 0.555671 0.533789
P_10 0.505169 0.492776 0.507723 0.528134 0.530905 0.531467
P_10 0.589914 0.683156 0.756702 0.772150 0.915456 0.953127
P_10 1.081097 1.052853 1.243520 1.109630 1.223464 1.344785
P_10 1.319565 1.224584 1.164169 1.100776 1.177266 1.093801
P_10 1.036617 1.099764 1.053588 1.102221 1.052353 0.986460
P_10 1.039195 1.155717 1.099384 1.097161 1.032881 1.142819
P_10 1.134309 1.011738 0.987764 0.913451 0.804756 0.720613
P_10 0.682961 0.652311 0.558039 0.442477 0.443446 0.434818
P_10 0.447044 0.509765 0.517829 0.586158 0.578845 0.732696
P_10 0.940666 0.895855 1.078379 1.159253 1.156490 1.350028
P_10 1.389006 1.363474 1.519303 1.490156 1.469152 1.501251
P_10 1.400187 1.302465 1.283236 1.170467 1.127401 0.966365
P_10 0.987112 0.965970 0.972762 1.039100 0.984637 1.123146
P_10 1.036311 1.167507 1.066180 1.218492 1.216731 1.176845
P_10 1.186191 1.163278 1.118175 1.000774 0.945113 0.890473
P_10 0.683128 0.640200 0.587440 0.484608 0.502205 0.468602
P_10 0.464501 0.473307 0.524443 0.578141 0.668023 0.770141
P_10 0.889435 0.996414 1.078353 1.019763 1.255867 1.255211
P_10 1.318111 1.317157 1.315127 1.446035 1.408262 1.431975
P_10 1.301935 1.155897 1.313104 1.228608 1.081364 1.008590
P_10 1.019705 1.101197 0.980798 1.025736 1.081477 1.129116
P_10 1.146754 1.144673 1.187687 1.202697 1.239169 1.175278
P_10 1.208185 1.153352 1.031048 1.017228 0.873876 0.889393
P_10 0.717331 0.635089 0.541469 0.528551 0.520550 0.501925
P_10 0.457538 0.490249 0.583847 0.644347 0.738725 0.727620
P_10 0.890746 0.988551 1.043592 1.211323 1.237238 1.340998
P_10 1.343491 1.247602 1.356242 1.392328 1.220880 1.244868
P_10 1.302684 1.259619 1.150025 1.250466 1.188330 1.114957
P_10 1.206346 1.143742 1.147732 1.120172 1.180187 1.076025
P_10 1.224907 1.125690 1.183285 1.239053 1.071552 1.264250
P_10 1.104897 1.163150 1.146009 1.050344 0.903618 0.859233
P_10 0.733195 0.700070 0.575011 0.529503 0.427273 0.464122
P_10 0.463453 0.496775 0.582803 0.660205 0.730214 0.776103
P_10 0.864970 0.941116 1.058738 1.106611 1.175736 1.291424
P_10 1.484611 1.403334 1.477654 1.355327 1.375012 1.321400
P_10 1.213027 1.252668 1.180973 1.154652 1.138466 1.068923
P_10 1.119583 1.027675 1.093156 1.174955 1.105791 1.184918
P_10 1.161781 1.173351 1.264907 1.186947 1.153089 1.147612
P_10 1.122125 1.190182 1.046980 1.071787 0.927494 0.853580
P_10 0.767245 0.699535 0.567659 0.570757 0.473207 0.458218
P_10 0.520163 0.525006 0.586343 0.625742 0.782254 0.953464
P_10 1.026469 1.115730 1.201753 1.281427 1.493641 1.594312
P_10 1.503511 1.515636 1.467368 1.674143 1.471533 1.505877
P_10 1.387829 1.298288 1.233739 1.198391 1.263512 1.249055
P_10 1.148433 1.067643 1.074758 1.228003 1.158482 1.127856
P_10 1.219086 1.233363 1.146769 1.287284 1.111945 1.109422
P_10 1.211333 1.106863 0.938126 0.932272 0.874341 0.776162
P_10 0.770039 0.729764 0.639584 0.581026 0.567425 0.520098
P_10 0.569635 0.493888 0.496366 0.584713 0.610225 0.705222
P_10 0.729139 0.844258 1.002317 1.017891 1.038773 1.140386
P_10 1.245480 1.244811 1.240976 1.337513 1.255782 1.360726
P_10 1.279136 1.258681 1.299597 1.171714 1.343047 1.176159
P_10 1.274877 1.193351 1.203408 1.169965 1.119860 1.160618
P_10 1.135493 1.147212 1.126621 1.163585 1.040513 0.992575
P_10 0.885723 0.905147 0.977930 0.832452 0.768926 0.746770
P_10 0.611573 0.649776 0.584915 0.591803 0.560776 0.594046
P_10 0.535243 0.523330 0.518457 0.518963 0.526730 0.552819
P_10 0.541074 0.688824 0.744546 0.812950 0.867129 1.004661
P_10 1.034050 1.124515 1.156454 1.096958 1.155396 1.253408
P_10 1.290651 1.264878 1.118099 1.153003 1.169744 1.077581
P_10 1.031186 0.969646 1.070769 0.954929 0.960227 1.050505
P_10 1.128195 1.119107 1.120147 1.147134 1.275662 1.189475
P_10 1.102170 0.990503 0.936302 1.014674 0.871588 0.768354
P_10 0.745638 0.602555 0.507468 0.476179 0.469229 0.451326
P_10 0.453363 0.514407 0.510892 0.573040 0.683816 0.801691
P_10 0.877145 1.019852 1.096795 1.176305 1.323337 1.247363
P_10 1.391068 1.559102 1.437131 1.317718 1.496444 1.422022
P_10 1.316337 1.320371 1.221575 1.161233 1.196163 1.005993
P_10 0.940179 1.073077 1.007837 1.081821 1.085179 1.155112
P_10 1.070027 1.096245 1.152307 1.130734 1.218646 1.068238
P_10 1.127162 1.203142 1.050034 1.096189 0.932752 0.836825
P_10 0.757109 0.670945 0.579396 0.520501 0.497800 0.481431
P_10 0.491901 0.488515 0.541395 0.570751 0.700219 0.791992
P_10 0.924336 0.954693 1.089882 1.096026 1.246748 1.323682
P_10 1.419841 1.321932 1.424299 1.434777 1.441881 1.392085
P_10 1.274533 1.262488 1.146844 1.144382 1.089629 1.081041
P_10 1.138643 1.032047 1.052182 1.113283 1.086872 1.183854
P_10 1.148104 1.176212 1.232988 1.200766 1.214438 1.281731
P_10 1.148724 1.158690 1.148737 0.939575 0.936233 0.774319
P_10 0.718853 0.662468 0.576658 0.562198 0.503307 0.485362
P_10 0.546661 0.556463 0.552920 0.681429 0.714293 0.836575
P_10 0.921143 0.917637 1.140527 1.250384 1.327254 1.332492
P_10 1.334125 1.383546 1.438766 1.504397 1.418351 1.319408
P_10 1.393289 1.296185 1.302049 1.189370 1.206767 1.261886
P_10 1.037761 1.240489 1.149581 1.158547 1.199560 1.089906
P_10 1.146737 1.156726 1.250937 1.172366 1.149384 1.262327
P_10 1.209582 1.223936 1.133768 1.038678 0.964625 0.856465
P_10 0.743836 0.635552 0.592514 0.511983 0.514015 0.440100
P_10 0.481026 0.480678 0.616158 0.639469 0.663090 0.851004
P_10 0.959930 1.025764 1.075175 1.221081 1.177649 1.159932
P_10 1.361051 1.401517 1.556963 1.371106 1.328690 1.166912
P_10 1.228378 1.272588 1.107613 1.183940 1.170529 1.155886
P_10 1.103721 1.156535 1.108668 1.136205 1.224744 1.168688
P_10 1.104345 1.229694 1.179945 1.293037 1.304229 1.305217
P_10 1.130490 1.114074 1.040326 0.934674 0.930807 0.857974
P_10 0.740935 0.669136 0.615933 0.606170 0.530072 0.455283
P_10 0.501152 0.558887 0.615698 0.654154 0.829421 0.890750
P_10 1.069508 1.086022 1.212326 1.415850 1.444788 1.469467
P_10 1.571670 1.610004 1.652853 1.576080 1.430997 1.573111
P_10 1.408595 1.417488 1.259511 1.261346 1.190740 1.285899
P_10 1.222266 1.217449 1.099620 1.163382 1.239552 1.213209
P_10 1.304844 1.091378 1.234617 1.163411 1.076718 1.204439
P_10 1.096060 1.029047 1.095889 1.041564 0.961706 0.888648
P_10 0.838697 0.825046 0.688145 0.665810 0.626005 0.544761