; Filename: networks/Net1.inp
; WNTR: 0.1.6
; Created: 2019-04-09 13:27:21
[TITLE]
EPANET Example Network 1
A simple example of modeling chlorine decay. Both bulk and
wall reactions are included.

[JUNCTIONS]
;ID                      Elevation       Demand Pattern                 
 10                               710               0                            ;
 11                               710               0                            ;
 12                               700               0                            ;
 13                               695               0                            ;
 21                               700               0                            ;
 22                               695               0                            ;
 23                               690               0                            ;
 31                               700               0                            ;
 32                               710               0                            ;

[RESERVOIRS]
;ID                                   Head                  Pattern
 9                                800                            ;

[TANKS]
;ID                              Elevation           Init Level            Min Level            Max Level             Diameter           Min Volume Volume Curve        
 2                                850             120             100             150            50.5               0                        ;

[PIPES]
;ID                   Node1                Node2                              Length             Diameter            Roughness           Minor Loss               Status
 10                   10                   11                             10530              18             100               0                 Open   ;
 11                   11                   12                              5280              14             100               0                 Open   ;
 12                   12                   13                              5280              10             100               0                 Open   ;
 21                   21                   22                              5280              10             100               0                 Open   ;
 22                   22                   23                              5280              12             100               0                 Open   ;
 31                   31                   32                              5280               6             100               0                 Open   ;
 110                  2                    12                               200              18             100               0                 Open   ;
 111                  11                   21                              5280              10             100               0                 Open   ;
 112                  12                   22                              5280              12             100               0                 Open   ;
 113                  13                   23                              5280               8             100               0                 Open   ;
 121                  21                   31                              5280               8             100               0                 Open   ;
 122                  22                   32                              5280               6             100               0                 Open   ;

[PUMPS]
;ID                   Node1                Node2                Properties          
 9                    9                    10                   HEAD     1                      ;

[VALVES]
;ID                   Node1                Node2                            Diameter Type              Setting           Minor Loss

[TAGS]
;type      name       tag       

[DEMANDS]
;ID        Demand     Pattern   
10         0.0        P_10      
11         150.0      P_11      
12         150.0      P_12      
13         100.0      P_13      
21         150.0      P_21      
22         200.0      P_22      
23         150.0      P_23      
31         100.0      P_31      
32         100.0      P_32      

[STATUS]
;ID        Setting   
[PATTERNS]
;ID        Multipliers

1 1.000000 1.200000 1.400000 1.600000 1.400000 1.200000
1 1.000000 0.800000 0.600000 0.400000 0.600000 0.800000

P_10 0.601766 0.500342 0.449346 0.469529 0.371166 0.383706
P_10 0.354038 0.383078 0.470463 0.471159 0.538963 0.666098
P_10 0.774018 0.790353 0.904812 1.020882 1.140850 1.306434
P_10 1.211510 1.267885 1.233735 1.184764 1.246593 1.189032
P_10 1.020941 1.102332 1.010784 1.044103 0.924307 0.874266
P_10 0.859697 0.846348 0.797079 0.875150 0.866762 0.929411
P_10 1.091434 1.139180 1.022231 0.970953 1.085401 1.134693
P_10 0.984064 1.025063 0.952084 0.882587 0.863433 0.676977
P_10 0.656388 0.571575 0.484837 0.474583 0.408365 0.398191
P_10 0.353567 0.398215 0.433344 0.496625 0.614827 0.652243
P_10 0.746047 0.828806 0.986435 0.997505 1.078121 1.096551
P_10 1.180256 1.202115 1.217410 1.276965 1.177722 1.231236
P_10 1.149218 1.105722 1.078064 0.982431 0.945564 0.878095
P_10 0.912012 0.807305 0.960058 0.936422 0.862115 1.025253
P_10 1.060244 1.039536 1.128658 1.121605 1.063916 1.030708
P_10 0.891434 0.984165 0.849696 0.925641 0.755144 0.780995
P_10 0.657113 0.571435 0.484988 0.447352 0.387530 0.363858
P_10 0.388298 0.412081 0.508032 0.521461 0.587886 0.743427
P_10 0.792204 0.907880 0.880554 1.053366 1.145134 1.199550
P_10 1.321895 1.229868 1.342061 1.244630 1.168683 1.101360
P_10 1.152522 1.215825 1.080070 1.063039 0.944596 1.029434
P_10 0.985353 0.981109 0.963334 0.873457 0.966086 1.017751
P_10 1.033452 1.040761 1.061253 1.102624 1.080100 1.031574
P_10 1.035151 1.020101 0.921400 0.920811 0.852435 0.801430
P_10 0.667480 0.547262 0.485941 0.427402 0.393183 0.413466
P_10 0.373500 0.454141 0.514566 0.525421 0.611071 0.743640
P_10 0.743361 0.937645 0.983017 1.049889 1.058233 1.189533
P_10 1.191928 1.195072 1.265683 1.241464 1.053018 1.185520
P_10 1.071161 1.031909 1.061049 1.016792 1.011748 0.969345
P_10 0.960245 0.905467 0.965674 0.895284 0.929903 1.094954
P_10 0.899691 1.007158 1.080385 1.062897 1.109510 1.057503
P_10 1.067594 0.894429 0.946387 0.898868 0.841186 0.706221
P_10 0.669277 0.586949 0.472485 0.473166 0.437291 0.377385
P_10 0.429229 0.448857 0.463512 0.576180 0.660264 0.823421
P_10 0.866224 1.026489 1.116787 1.154370 1.337102 1.265998
P_10 1.437803 1.268261 1.322055 1.496777 1.267727 1.243519
P_10 1.207483 1.095953 1.123430 1.082783 1.048379 1.044169
P_10 0.920150 1.088294 0.986716 0.970305 1.080061 1.117409
P_10 1.105026 0.942095 1.056991 0.995681 1.057424 1.036588
P_10 1.049304 1.101669 0.967502 0.888348 0.853788 0.800970
P_10 0.667077 0.629398 0.557904 0.533067 0.460629 0.444855
P_10 0.366543 0.427829 0.411547 0.497163 0.512799 0.586549
P_10 0.661817 0.760924 0.803599 0.916873 0.958282 0.890728
P_10 1.013945 1.026622 1.084577 1.208120 1.126625 1.138569
P_10 1.154710 1.032292 1.083939 0.973368 1.017095 0.991445
P_10 0.978529 1.016401 1.008265 0.898801 1.000457 1.011718
P_10 0.981298 0.953770 1.007310 1.087516 0.896498 0.981934
P_10 0.853350 0.865387 0.841388 0.759539 0.712854 0.712563
P_10 0.642126 0.563985 0.494147 0.504265 0.449076 0.416069
P_10 0.374962 0.409700 0.445196 0.440547 0.480198 0.500986
P_10 0.567183 0.584064 0.675997 0.724876 0.855920 0.910405
P_10 0.912493 0.992991 0.971724 1.059613 0.986832 1.117830
P_10 1.135803 1.058719 1.009037 0.963581 0.983787 0.906702
P_10 0.899404 0.980060 0.896679 0.887962 0.899705 1.010185
P_10 0.958242 1.043180 0.985725 1.046456 1.021827 0.927025
P_10 0.982550 1.000028 0.800759 0.870440 0.756559 0.635484
P_10 0.656551 0.539484 0.478152 0.431691 0.411321 0.392553
P_10 0.383420 0.395260 0.453865 0.499884 0.545799 0.622095
P_10 0.782630 0.811590 0.989400 1.008080 1.138546 1.259280
P_10 1.290513 1.423721 1.429386 1.344328 1.262268 1.278413
P_10 1.289145 1.282008 1.100833 0.950519 0.961040 0.983668
P_10 0.917642 0.821379 0.915911 0.832739 0.931581 0.939492
P_10 0.957366 0.978814 1.093378 1.185159 1.104340 1.123514
P_10 1.007639 1.059517 1.030254 0.832237 0.821795 0.697013
P_10 0.658546 0.603343 0.489012 0.459023 0.391885 0.387793
P_10 0.412781 0.381886 0.494915 0.499370 0.612164 0.633148
P_10 0.758062 0.827195 0.948123 1.093674 1.175199 1.093943
P_10 1.153989 1.208237 1.259770 1.259724 1.223589 1.217464
P_10 1.143059 1.093522 1.056364 0.974329 0.886862 0.945456
P_10 0.905466 0.855728 0.919257 0.980098 0.960807 0.931923
P_10 0.984650 0.994274 1.061285 1.079879 1.189131 1.063223
P_10 1.094879 1.053983 1.022697 0.823992 0.881320 0.773621
P_10 0.572148 0.532361 0.460353 0.431776 0.428529 0.367518
P_10 0.370534 0.407556 0.475513 0.511768 0.561305 0.762950
P_10 0.861882 0.878712 0.979839 1.100276 1.134092 1.193899
P_10 1.237618 1.059427 1.096728 1.145660 1.130483 1.101200
P_10 1.167741 1.116309 1.041841 1.102328 1.001508 1.055294
P_10 0.966193 0.993513 0.958764 1.051998 0.951944 1.028396
P_10 1.087956 1.106629 1.104042 1.097440 1.140984 1.081271
P_10 1.140531 0.921486 1.120856 0.953188 0.846513 0.734202
P_10 0.667299 0.600752 0.463400 0.443541 0.385722 0.400098
P_10 0.399576 0.419409 0.440003 0.524701 0.638661 0.721776
P_10 0.826225 0.917385 1.035105 1.028389 1.048002 1.226978
P_10 1.246780 1.194118 1.168690 1.141251 1.217829 1.181936
P_10 1.022173 1.148059 1.001224 0.994491 1.059153 0.918604
P_10 0.910874 1.012907 0.968721 0.989997 0.949099 0.947337
P_10 1.134135 1.062603 1.079836 1.117446 1.095855 1.110368
P_10 0.999307 1.076379 0.900499 0.891980 0.822486 0.750835
P_10 0.640881 0.591600 0.505843 0.456434 0.401101 0.409148
P_10 0.412206 0.471711 0.509335 0.583568 0.694243 0.827402
P_10 0.939094 0.994644 1.101302 1.121549 1.329163 1.420181
P_10 1.517052 1.454154 1.415375 1.315348 1.337667 1.305686
P_10 1.314994 1.166329 1.105106 1.123292 1.096502 0.980028
P_10 1.078766 1.031335 1.043624 1.036914 1.035083 1.012451
P_10 1.013759 1.038919 1.058029 1.112220 1.131749 1.016262
P_10 0.962878 0.988765 1.002922 0.919193 0.787032 0.711845
P_10 0.706753 0.590651 0.623484 0.528043 0.479472 0.445854
P_10 0.467524 0.446309 0.443207 0.473668 0.522254 0.547753
P_10 0.675801 0.783737 0.775229 0.977041 1.001731 1.148002
P_10 1.090631 1.144354 1.274823 1.225582 1.166804 1.225481
P_10 1.072131 1.046592 1.106225 1.099273 1.050748 0.963986
P_10 1.050176 0.990733 1.058657 1.081234 0.945107 0.948853
P_10 1.065492 1.141905 1.000082 1.066483 1.055116 0.950889
P_10 0.910928 0.793912 0.829393 0.827502 0.724800 0.732464
P_10 0.644765 0.588522 0.531235 0.480073 0.490880 0.464000
P_10 0.426634 0.393528 0.467456 0.413553 0.468314 0.494999
P_10 0.546841 0.567125 0.755742 0.692264 0.822624 0.791178
P_10 0.986591 0.978167 1.083249 1.054897 1.143142 1.079180
P_10 0.997271 1.021568 1.014127 0.989887 0.977776 0.982325
P_10 0.910440 0.871442 0.865113 0.925706 0.902858 1.031654
P_10 0.939184 0.994543 1.034317 0.976566 1.087120 1.055571
P_10 1.106586 0.954587 0.875450 0.891799 0.760735 0.681894
P_10 0.606168 0.507436 0.480981 0.412947 0.398865 0.372899
P_10 0.395865 0.421186 0.451855 0.490546 0.547923 0.696653
P_10 0.747575 0.824594 0.986655 1.052239 1.270459 1.197364
P_10 1.124649 1.304824 1.422977 1.299190 1.259934 1.309140
P_10 1.253512 1.113499 1.175636 1.037199 0.968803 0.888855
P_10 0.903887 0.861955 0.928563 0.918234 0.956843 0.900579
P_10 1.070927 1.129681 1.115601 1.086390 1.090603 1.106558
P_10 0.997960 1.116739 0.969423 0.977843 0.823132 0.764098
P_10 0.643949 0.598608 0.515662 0.432732 0.384283 0.373348
P_10 0.413347 0.383881 0.460816 0.502181 0.589584 0.639167
P_10 0.782065 0.855347 1.021047 1.125061 1.041733 1.104410
P_10 1.237854 1.208267 1.214768 1.155535 1.185337 1.182026
P_10 1.166692 1.022669 1.063699 1.046943 0.961169 0.836882
P_10 0.972237 0.816131 0.958093 1.033597 0.977971 0.994651
P_10 0.977803 1.149025 1.097476 1.198862 1.215366 1.101895
P_10 1.073557 1.071308 0.926237 0.965975 0.791629 0.695365
P_10 0.616352 0.588112 0.477522 0.452450 0.411063 0.398113
P_10 0.402659 0.423430 0.482785 0.588580 0.655183 0.772168
P_10 0.777325 0.941087 0.992850 1.106637 1.262321 1.149365
P_10 1.219725 1.292919 1.305331 1.217157 1.190724 1.280376
P_10 1.256574 1.179027 1.128068 1.131866 1.014876 1.068723
P_10 1.064184 1.074079 1.051232 1.011562 0.886286 1.064111
P_10 0.990015 1.085642 1.137299 1.065674 1.186295 1.016992
P_10 1.060681 1.080448 1.009916 0.940410 0.874522 0.712898
P_10 0.652513 0.624439 0.501601 0.413747 0.401765 0.417340
P_10 0.380397 0.428386 0.472621 0.579977 0.683153 0.729332
P_10 0.804134 0.891601 0.966359 1.067449 1.123844 1.219031
P_10 1.254921 1.332293 1.280449 1.213957 1.229534 1.267069
P_10 1.063070 1.150813 1.098803 0.998787 0.995790 0.939217
P_10 1.007558 0.988760 0.919057 0.926710 1.050356 0.998446
P_10 1.040329 1.004325 1.095168 1.092115 1.071799 1.043985
P_10 1.165258 1.046995 1.053470 0.955291 0.903508 0.752735
P_10 0.672205 0.578828 0.488074 0.461390 0.399786 0.366086
P_10 0.435933 0.467944 0.546362 0.581483 0.709671 0.757842
P_10 0.902596 0.970903 1.157535 1.220208 1.372131 1.343159
P_10 1.358812 1.417407 1.402919 1.359770 1.287056 1.370174
P_10 1.290920 1.197720 1.072848 1.070104 1.064089 1.094722
P_10 1.100927 1.072744 1.068474 1.141339 1.026629 1.102237
P_10 1.082660 1.035733 1.097731 1.102092 1.007042 0.985667
P_10 0.985705 0.923548 0.976524 0.865676 0.887224 0.778888
P_10 0.722751 0.571600 0.574254 0.555799 0.495341 0.457141
P_10 0.462404 0.470661 0.468630 0.482259 0.534040 0.597934
P_10 0.604370 0.711077 0.873676 0.860868 0.980345 1.024095
P_10 1.149131 1.190982 1.253427 1.206487 1.231647 1.266276
P_10 1.231795 1.099883 1.120078 1.070122 1.130977 1.137739
P_10 1.045632 1.020203 1.022712 0.991799 0.922927 0.989939
P_10 1.095797 1.190756 1.006571 0.991800 1.046385 1.063667
P_10 0.926458 0.916228 0.893054 0.799291 0.741029 0.714139
P_10 0.687412 0.643360 0.522359 0.455508 0.521905 0.450341
P_10 0.425980 0.432235 0.485507 0.428845 0.489582 0.562250
P_10 0.583213 0.616249 0.711351 0.737835 0.881563 0.857470
P_10 1.009816 0.989137 1.044657 1.097106 1.131770 1.046715
P_10 1.144492 1.133705 1.052940 1.007155 0.969342 0.949790
P_10 0.963171 0.895747 0.879334 0.911761 1.037673 0.829248
P_10 0.988614 0.916610 1.032022 1.081553 1.085149 0.959890
P_10 0.941386 1.032569 0.884456 0.843070 0.818570 0.742214
P_10 0.656188 0.529488 0.493786 0.445273 0.423943 0.429935
P_10 0.369336 0.408224 0.440762 0.483098 0.559458 0.680126
P_10 0.752869 0.963602 0.953816 1.048223 1.190665 1.248000
P_10 1.221441 1.278933 1.235401 1.354256 1.295654 1.253361
P_10 1.271075 1.296298 1.036680 1.010124 1.060907 0.855184
P_10 0.913818 0.893111 0.965601 0.992850 0.977095 1.003564
P_10 0.985422 1.164776 1.101680 1.079897 1.122072 1.150766
P_10 1.035733 1.078573 1.056116 0.915120 0.878166 0.700506
P_10 0.750652 0.548423 0.481963 0.443264 0.411562 0.387481
P_10 0.403664 0.420299 0.476526 0.533093 0.576050 0.684721
P_10 0.768304 0.957991 0.923358 1.048308 1.065587 1.103039
P_10 1.188005 1.242747 1.309481 1.180556 1.319370 1.207060
P_10 1.211317 1.097128 1.128311 1.020053 0.936288 1.019044
P_10 1.020754 0.936637 0.962114 0.986754 0.993840 1.109922
P_10 1.034013 1.109326 1.243705 1.112920 1.160529 1.062048
P_10 0.992084 1.016420 0.937624 0.887709 0.838274 0.716831
P_10 0.616493 0.566609 0.504682 0.407971 0.396575 0.376481
P_10 0.408975 0.389378 0.480903 0.557827 0.650232 0.732928
P_10 0.828192 0.867089 0.951998 1.081776 1.161977 1.252274
P_10 1.162359 1.302169 1.312447 1.333987 1.305905 1.324644
P_10 1.152070 1.243708 1.214908 1.062087 1.070209 1.081712
P_10 1.012189 1.059413 1.031708 0.934279 0.933588 1.132311
P_10 1.104947 1.164316 1.072180 1.140259 1.005145 1.182504
P_10 1.063257 1.076850 1.019016 0.920502 0.897585 0.763313
P_10 0.696926 0.619586 0.504533 0.463213 0.471821 0.437386
P_10 0.428681 0.452986 0.468881 0.540340 0.675698 0.776521
P_10 0.887977 0.991648 1.022874 1.138817 1.190362 1.176053
P_10 1.353849 1.228454 1.275333 1.184232 1.247124 1.284993
P_10 1.174100 1.025264 1.048741 1.060395 0.957125 0.972113
P_10 1.035852 1.028068 0.901023 1.046341 0.987134 1.131167
P_10 1.076628 1.188433 1.135968 1.136556 1.143978 1.179803
P_10 1.149401 1.023834 0.941805 0.908475 0.863899 0.782694
P_10 0.678274 0.610284 0.590611 0.470395 0.371368 0.433649
P_10 0.402480 0.468982 0.546951 0.642435 0.665943 0.708160
P_10 0.942724 1.094188 1.108807 1.258795 1.298192 1.291643
P_10 1.377891 1.517677 1.400704 1.465372 1.344276 1.341667
P_10 1.240908 1.271265 1.093815 1.149953 1.090354 1.038347
P_10 1.080356 1.016607 1.052541 1.108047 1.075233 1.138478
P_10 1.167673 1.003816 1.112929 1.193550 1.119168 1.093960
P_10 1.092538 1.038230 1.024910 0.817095 0.817444 0.788357
P_10 0.707032 0.611726 0.560915 0.535121 0.483512 0.477982
P_10 0.415529 0.441773 0.456223 0.439692 0.542155 0.613188
P_10 0.634987 0.780673 0.860177 0.951430 0.964496 1.082755
P_10 1.070929 1.107018 1.135858 1.190728 1.379004 1.109932
P_10 1.252488 1.171585 1.202298 1.015478 1.077108 1.067980
P_10 1.101775 0.985463 1.105190 1.130975 1.160494 0.982290
P_10 1.024223 1.177495 1.020900 1.055918 1.143602 1.035554
P_10 0.989470 0.952067 0.898824 0.774392 0.782408 0.702268
P_10 0.696390 0.583590 0.526814 0.498961 0.508227 0.403665
P_10 0.483458 0.429675 0.429160 0.469156 0.494378 0.494628
P_10 0.527205 0.683879 0.716409 0.808642 0.914218 0.880836
P_10 1.031730 1.077383 1.093568 1.173278 1.042221 1.058131
P_10 1.149735 1.051583 1.099411 1.013243 1.069397 1.050568
P_10 1.003113 0.888165 0.920450 0.954024 0.978171 0.994350
P_10 1.014961 1.090555 1.172372 1.021947 1.050033 1.101478
P_10 0.923477 0.916352 0.840449 0.863477 0.719660 0.676474
P_10 0.632399 0.593519 0.496221 0.410246 0.438234 0.391822
P_10 0.383751 0.451458 0.495885 0.537225 0.563638 0.774158
P_10 0.786580 0.840056 1.035438 1.213772 1.194306 1.413633
P_10 1.305480 1.422884 1.446113 1.305354 1.256531 1.324284
P_10 1.320449 1.165863 1.193287 1.044248 1.013035 0.960617
P_10 0.896603 0.938769 0.955669 0.879745 0.971236 0.931250
P_10 1.091099 1.053912 1.118046 1.155358 1.081372 1.099251
P_10 1.123775 1.052288 0.994810 0.996769 0.926541 0.746852
P_10 0.632037 0.601043 0.533539 0.457922 0.433213 0.391668
P_10 0.437085 0.414021 0.510292 0.520911 0.685785 0.701777
P_10 0.749505 0.933585 1.039557 1.069525 1.167329 1.311368
P_10 1.182945 1.356100 1.342315 1.365285 1.282393 1.332552
P_10 1.231482 1.221161 1.084843 1.031598 1.043201 0.993669
P_10 1.008108 1.007575 0.902902 1.037076 1.006214 1.117832
P_10 1.124019 1.256110 1.095984 1.139805 1.263067 1.140774
P_10 1.120871 1.125817 1.015488 0.888873 0.904086 0.772568
P_10 0.631091 0.551699 0.536172 0.430909 0.407613 0.450408
P_10 0.443083 0.478364 0.526874 0.595111 0.662129 0.727572
P_10 0.843252 0.976944 0.997203 1.190641 1.134734 1.244594
P_10 1.272630 1.336842 1.318847 1.235503 1.397726 1.369980
P_10 1.243771 1.198449 1.121547 1.202027 1.098930 0.983352
P_10 0.982013 0.974544 0.988440 1.036750 1.095905 1.101986
P_10 0.967615 1.167634 1.098314 1.031182 1.201879 1.048502
P_10 1.047594 1.079630 0.997054 1.010244 0.826954 0.769106
P_10 0.762185 0.581209 0.496808 0.510296 0.452011 0.405101
P_10 0.428744 0.449168 0.484857 0.541847 0.695021 0.739420
P_10 0.894795 0.937969 1.043507 1.163928 1.301459 1.129437
P_10 1.213313 1.298124 1.338630 1.369402 1.256576 1.257903
P_10 1.137201 1.111014 1.008040 0.943029 1.060153 0.973429
P_10 1.022966 1.008732 1.068801 1.123426 1.087760 1.058563
P_10 1.294068 1.128688 1.055655 1.091323 1.285086 1.135552
P_10 1.201737 1.072635 1.004141 1.044037 0.940143 0.840465
P_10 0.706137 0.633422 0.587945 0.479881 0.494657 0.431338
P_10 0.383620 0.432608 0.556769 0.601541 0.694074 0.851212
P_10 0.942359 1.080324 1.149284 1.233099 1.445066 1.412503
P_10 1.351085 1.367110 1.562240 1.345841 1.550989 1.335103
P_10 1.292840 1.275480 1.196120 1.195394 1.096949 1.125277
P_10 1.081595 1.076399 1.073097 1.065223 1.088736 1.105102
P_10 1.174173 1.205144 1.209912 1.169871 1.077207 1.110671
P_10 1.062204 1.082985 0.951489 1.027467 0.912867 0.800882
P_10 0.827152 0.709971 0.599232 0.612027 0.498801 0.456725
P_10 0.427820 0.436477 0.501560 0.529981 0.572577 0.597871
P_10 0.713996 0.775031 0.893667 0.996303 1.027897 1.132841
P_10 1.154655 1.252849 1.283465 1.222909 1.300736 1.355616
P_10 1.251077 1.127522 1.219693 1.177129 1.111872 1.151903
P_10 0.994155 1.193496 1.153659 1.107069 1.047477 1.072825
P_10 1.183368 1.195135 1.156412 1.133175 1.003149 1.049093
P_10 0.932472 0.879655 0.879076 0.822317 0.751501 0.718372
P_10 0.674234 0.670715 0.605546 0.535790 0.508712 0.475853
P_10 0.420850 0.449488 0.498760 0.464105 0.492883 0.565078
P_10 0.595573 0.624340 0.781328 0.752066 0.868934 0.902737
P_10 0.939509 1.112454 1.087151 1.088499 1.066725 1.222441
P_10 1.104544 1.159528 1.187926 1.034714 1.043916 1.038480
P_10 0.981175 0.997613 0.971638 1.012623 0.950149 0.978592
P_10 1.009408 1.096957 1.119966 1.072549 1.102001 1.065226
P_10 1.047925 0.970793 0.878749 0.884743 0.850613 0.795939
P_10 0.661647 0.569507 0.492637 0.481359 0.440420 0.409955
P_10 0.411941 0.421417 0.426153 0.564542 0.614033 0.675447
P_10 0.794462 0.978855 1.007612 1.201831 1.272978 1.247004
P_10 1.497765 1.400121 1.420276 1.469567 1.374936 1.419759
P_10 1.409899 1.222353 1.105634 1.122179 1.038415 1.070225
P_10 0.978114 0.887634 0.960111 0.989261 1.039162 1.009897
P_10 1.004915 1.161576 1.071065 1.158051 1.143869 1.133489
P_10 1.081795 1.067358 1.020448 0.954313 0.939764 0.744718
P_10 0.717185 0.617946 0.491644 0.467518 0.449992 0.396514
P_10 0.413250 0.438445 0.507823 0.503428 0.665506 0.721678
P_10 0.790287 0.927281 1.076746 1.092488 1.135215 1.253997
P_10 1.307454 1.314652 1.226578 1.280064 1.301301 1.331227
P_10 1.265796 1.193274 1.191689 0.994664 1.040281 1.088385
P_10 1.056796 0.978391 0.984944 1.073924 1.047761 0.987398
P_10 1.117970 1.130183 1.135960 1.183147 1.110146 1.175491
P_10 1.159129 1.117816 1.005864 1.057820 0.966916 0.811453
P_10 0.686898 0.648457 0.497572 0.451129 0.410094 0.410667
P_10 0.404832 0.480209 0.530786 0.580775 0.667647 0.707590
P_10 0.858282 1.027813 1.066460 1.138076 1.148645 1.194604
P_10 1.251679 1.374780 1.308905 1.327248 1.315774 1.256015
P_10 1.159051 1.247051 1.079593 1.217264 1.144198 1.225196
P_10 1.029357 1.029708 1.059110 1.064484 1.061375 1.171132
P_10 1.191947 1.173711 1.110660 1.259959 1.231921 1.209440
P_10 1.097004 1.044119 1.026185 0.969353 0.929432 0.870139
P_10 0.721311 0.644482 0.575549 0.459147 0.435372 0.399250
P_10 0.436510 0.456843 0.499691 0.616252 0.669193 0.756159
P_10 0.853023 1.001529 1.104116 1.131748 1.221024 1.244947
P_10 1.389517 1.323527 1.219136 1.306477 1.212287 1.305101
P_10 1.143442 1.209077 1.134185 1.045307 1.098657 1.054951
P_10 1.017981 1.076941 0.979633 1.116093 1.041785 1.077192
P_10 1.158087 1.092561 1.232146 1.223294 1.179629 1.074959
P_10 1.157610 1.072855 1.068824 1.054775 0.960037 0.816744
P_10 0.747995 0.625127 0.598745 0.525820 0.435490 0.412565
P_10 0.450004 0.497179 0.547619 0.580755 0.679245 0.851885
P_10 0.971751 1.136216 1.183172 1.330768 1.505749 1.529210
P_10 1.589747 1.600031 1.529465 1.506143 1.588088 1.383779
P_10 1.402869 1.292990 1.276221 1.151097 1.019701 1.090892
P_10 1.126194 1.156412 1.003971 1.099713 1.146974 1.095726
P_10 1.189542 1.154039 1.230054 1.148811 1.203263 1.172992
P_10 1.176400 1.121897 1.059119 1.038435 0.906583 0.774459
P_10 0.718369 0.733811 0.595259 0.549237 0.517424 0.480328
P_10 0.422592 0.535345 0.511777 0.538101 0.614505 0.647042
P_10 0.690835 0.675437 0.883976 0.990177 1.081868 1.120326
P_10 1.207419 1.177995 1.292341 1.300926 1.290787 1.217096
P_10 1.241028 1.186271 1.259189 1.216828 1.150131 1.191195
P_10 1.063732 1.093979 1.209622 1.183231 1.234593 1.112973
P_10 1.225752 1.172641 1.087583 1.067363 1.078391 1.013396
P_10 1.071209 0.956522 0.887270 0.885303 0.769119 0.725845
P_10 0.682929 0.624363 0.589653 0.536543 0.494935 0.515199
P_10 0.521757 0.456683 0.450384 0.554201 0.500081 0.576392
P_10 0.609869 0.615876 0.736836 0.849764 0.915490 1.037225
P_10 1.048392 1.152018 1.090394 1.164824 1.307678 1.193804
P_10 1.235073 1.207493 1.096140 1.028576 1.088318 1.079445
P_10 1.033636 1.049206 1.023194 0.938879 0.945680 1.002802
P_10 1.131914 1.056632 1.157602 1.046495 1.141831 1.132553
P_10 1.092454 1.114429 1.045984 0.947510 0.800995 0.826381
P_10 0.673665 0.558764 0.500694 0.462882 0.436866 0.412221
P_10 0.451756 0.388782 0.522771 0.531802 0.648406 0.806902
P_10 0.815780 0.925597 1.184642 1.184839 1.159422 1.310632
P_10 1.378066 1.380191 1.388724 1.399515 1.487336 1.363832
P_10 1.368059 1.216458 1.240462 1.066329 1.010610 1.041540
P_10 1.015760 1.002170 0.915137 1.013457 1.073449 1.050856
P_10 1.093134 1.046445 1.234502 1.199503 1.102171 1.238032
P_10 1.033296 1.032786 1.081764 1.021591 0.940034 0.776530
P_10 0.770376 0.588324 0.529393 0.450503 0.403021 0.407435
P_10 0.396892 0.438750 0.496950 0.601197 0.610821 0.695021
P_10 0.806013 0.945492 1.043357 1.061581 1.073101 1.302234
P_10 1.240060 1.376147 1.407934 1.362381 1.325299 1.257112
P_10 1.282805 1.179364 1.168493 1.152907 1.042339 1.077970
P_10 0.986925 0.995694 1.085872 1.050696 1.083309 1.175492
P_10 1.132094 1.282058 1.207341 1.244981 1.168261 1.147411
P_10 1.177653 1.324336 1.137195 1.000008 0.843852 0.757456
P_10 0.695453 0.567785 0.523156 0.514295 0.452464 0.466773
P_10 0.394256 0.457586 0.507767 0.582186 0.651959 0.794146
P_10 0.897454 0.983067 1.040500 1.201334 1.281269 1.254986
P_10 1.367728 1.325610 1.336603 1.446622 1.414083 1.266029
P_10 1.293001 1.195673 1.150193 1.139425 1.165670 1.151798
P_10 1.089523 0.991815 1.024827 1.120929 1.062088 1.087856
P_10 1.174427 1.190547 1.065307 1.221889 1.227800 1.232581
P_10 1.151058 1.131746 1.078558 1.007885 0.997602 0.821244
P_10 0.721693 0.603676 0.582816 0.499726 0.459744 0.448871
P_10 0.464921 0.488112 0.541371 0.606691 0.731252 0.773353
P_10 0.939424 0.863943 1.030218 1.126754 1.257919 1.258327
P_10 1.327842 1.377176 1.433067 1.357539 1.380721 1.361725
P_10 1.294762 1.162894 1.210480 1.079011 0.979517 1.133869
P_10 1.069378 1.073253 0.986941 1.150412 1.119643 1.179366
P_10 1.138640 1.169918 1.198675 1.258902 1.206625 1.214196
P_10 1.167188 1.128005 1.032394 0.984619 0.890517 0.854893
P_10 0.801374 0.664469 0.610003 0.499688 0.485096 0.461937
P_10 0.424688 0.455027 0.523427 0.550201 0.796166 0.872285
P_10 1.006041 1.092220 1.197094 1.362837 1.395648 1.539508
P_10 1.491417 1.495596 1.577862 1.565532 1.488898 1.414230
P_10 1.387107 1.325359 1.227916 1.300394 1.226625 1.141664
P_10 1.062649 1.042203 1.146617 1.088632 1.125882 1.052938
P_10 1.259692 1.193055 1.251833 1.182043 1.123278 1.159698
P_10 1.111321 1.050913 1.058487 0.995498 0.953702 0.890338
P_10 0.751523 0.762351 0.689689 0.551667 0.527176 0.485932
P_10 0.492654 0.477457 0.497185 0.525211 0.564804 0.632479
P_10 0.674509 0.807858 0.931330 1.044981 1.047727 1.218096
P_10 1.228908 1.231580 1.154331 1.373932 1.335191 1.337798
P_10 1.224257 1.245972 1.169311 1.177776 1.216335 1.131334
P_10 1.168402 1.194983 1.196324 1.159851 1.164021 1.028452
P_10 1.250865 1.271955 1.028675 1.129461 1.138065 1.106804
P_10 1.061365 0.910316 0.959649 0.791330 0.737581 0.743644
P_10 0.686441 0.622111 0.576532 0.544653 0.585144 0.513538
P_10 0.483627 0.423664 0.468758 0.520594 0.553054 0.510375
P_10 0.592155 0.719799 0.756956 0.866460 0.880462 0.968428
P_10 1.082432 1.100090 1.144615 1.211583 1.172814 1.161529
P_10 1.204107 1.141684 1.228812 1.099905 1.149942 1.043046
P_10 1.058240 0.964197 1.014845 1.034092 1.093246 1.116994
P_10 1.022568 1.251307 1.126361 1.148195 1.186751 1.093941
P_10 1.063715 1.018498 0.905193 0.881441 0.855592 0.723104
P_10 0.676049 0.604574 0.511650 0.496268 0.420128 0.410240
P_10 0.421706 0.477234 0.475399 0.557244 0.606449 0.689534
P_10 0.800928 1.012948 1.118580 1.168640 1.233400 1.450901
P_10 1.454441 1.599323 1.494677 1.602887 1.396957 1.186406
P_10 1.357596 1.330056 1.132107 1.219907 1.031187 1.075235
P_10 1.044406 1.008192 0.993459 1.029266 1.072779 0.999521
P_10 1.146264 1.152642 1.235714 1.321571 1.248116 1.223250
P_10 1.301517 1.136594 1.140989 1.066891 0.900302 0.814705
P_10 0.736899 0.628311 0.558771 0.462053 0.471597 0.419977
P_10 0.423776 0.448309 0.489925 0.544625 0.689412 0.738599
P_10 0.895337 0.942237 1.062794 1.199503 1.232557 1.166529
P_10 1.295094 1.322001 1.388673 1.329128 1.331410 1.311495
P_10 1.209674 1.192602 1.259453 1.075062 0.970281 0.889599
P_10 0.993346 0.967024 1.001466 1.042743 1.072351 1.083056
P_10 1.240812 1.144568 1.241219 1.186368 1.248930 1.455782
P_10 1.156534 1.050198 1.196359 1.009859 0.850132 0.771073
P_10 0.677409 0.602204 0.525620 0.523583 0.425645 0.438372
P_10 0.464994 0.527594 0.531494 0.600588 0.724141 0.741025
P_10 0.934435 1.073172 1.143351 1.217208 1.272681 1.232331
P_10 1.441650 1.230741 1.419875 1.411676 1.422114 1.421795
P_10 1.294365 1.307110 1.182895 1.249709 1.105733 1.077278
P_10 1.127488 1.093027 1.009817 1.166482 1.181801 1.126635
P_10 1.139512 1.235690 1.316639 1.215026 1.117243 1.072153
P_10 1.217567 1.196938 1.103391 0.986089 0.909229 0.887529
P_10 0.740107 0.664595 0.562852 0.490219 0.468884 0.445179
P_10 0.479732 0.498743 0.521816 0.561087 0.702688 0.886240
P_10 0.788102 1.059155 1.086315 1.251766 1.385591 1.401877
P_10 1.493162 1.580811 1.448279 1.409036 1.484812 1.219218
P_10 1.223492 1.159120 1.203580 1.081299 1.177812 1.141881
P_10 1.127892 1.162580 1.007763 1.138042 1.011883 1.223720
P_10 1.156582 1.233207 1.194703 1.235211 1.197082 1.335899
P_10 1.193261 1.133440 1.132084 1.092726 1.012916 0.873381
P_10 0.798480 0.686337 0.599197 0.510781 0.466771 0.457937
P_10 0.470417 0.492596 0.618307 0.628497 0.756671 0.840975
P_10 0.931333 1.096730 1.268571 1.338878 1.460968 1.571050
P_10 1.502158 1.542406 1.507399 1.403796 1.644068 1.545671
P_10 1.409714 1.237016 1.221836 1.229816 1.185151 1.248121
P_10 1.066970 1.109968 1.063515 1.128408 1.133349 1.175013
P_10 1.176593 1.257748 1.223495 1.316334 1.152428 1.170549
P_10 1.026556 1.174513 0.958309 0.990219 0.943435 0.838513
P_10 0.773491 0.750333 0.662217 0.538875 0.534219 0.491775