; Filename: networks/Net1.inp
; WNTR: 0.1.6
; Created: 2019-04-09 13:21:46
[TITLE]
EPANET Example Network 1
A simple example of modeling chlorine decay. Both bulk and
wall reactions are included.

[JUNCTIONS]
;ID                      Elevation       Demand Pattern                 
 10                               710               0                            ;
 11                               710               0                            ;
 12                               700               0                            ;
 13                               695               0                            ;
 21                               700               0                            ;
 22                               695               0                            ;
 23                               690               0                            ;
 31                               700               0                            ;
 32                               710               0                            ;

[RESERVOIRS]
;ID                                   Head                  Pattern
 9                                800                            ;

[TANKS]
;ID                              Elevation           Init Level            Min Level            Max Level             Diameter           Min Volume Volume Curve        
 2                                850             120             100             150            50.5               0                        ;

[PIPES]
;ID                   Node1                Node2                              Length             Diameter            Roughness           Minor Loss               Status
 10                   10                   11                             10530              18             100               0                 Open   ;
 11                   11                   12                              5280              14             100               0                 Open   ;
 12                   12                   13                              5280              10             100               0                 Open   ;
 21                   21                   22                              5280              10             100               0                 Open   ;
 22                   22                   23                              5280              12             100               0                 Open   ;
 31                   31                   32                              5280               6             100               0                 Open   ;
 110                  2                    12                               200              18             100               0                 Open   ;
 111                  11                   21                              5280              10             100               0                 Open   ;
 112                  12                   22                              5280              12             100               0                 Open   ;
 113                  13                   23                              5280               8             100               0                 Open   ;
 121                  21                   31                              5280               8             100               0                 Open   ;
 122                  22                   32                              5280               6             100               0                 Open   ;

[PUMPS]
;ID                   Node1                Node2                Properties          
 9                    9                    10                   HEAD     1                      ;

[VALVES]
;ID                   Node1                Node2                            Diameter Type              Setting           Minor Loss

[TAGS]
;type      name       tag       

[DEMANDS]
;ID        Demand     Pattern   
10         0.0        P_10      
11         150.0      P_11      
12         150.0      P_12      
13         100.0      P_13      
21         150.0      P_21      
22         200.0      P_22      
23         150.0      P_23      
31         100.0      P_31      
32         100.0      P_32      

[STATUS]
;ID        Setting   
[PATTERNS]
;ID        Multipliers

1 1.000000 1.200000 1.400000 1.600000 1.400000 1.200000
1 1.000000 0.800000 0.600000 0.400000 0.600000 0.800000

P_10 0.719119 0.654280 0.602440 0.513619 0.529426 0.490275
P_10 0.450434 0.536355 0.491589 0.567408 0.616318 0.713038
P_10 0.810381 0.750879 0.993702 0.950729 1.064338 0.991686
P_10 1.138161 1.193513 1.245989 1.141102 1.177108 1.168642
P_10 1.089748 1.084137 0.999874 0.993415 0.990899 0.826426
P_10 0.883420 0.859345 0.863902 0.968685 0.917587 0.907278
P_10 0.921952 1.040862 1.052511 1.017905 1.038141 0.951100
P_10 0.998477 1.020508 0.954369 0.864379 0.869688 0.728602
P_10 0.760830 0.686456 0.620091 0.571342 0.501369 0.521265
P_10 0.518610 0.484082 0.520791 0.605135 0.642985 0.696455
P_10 0.725463 0.796146 0.970668 1.088214 0.901587 1.143779
P_10 1.099934 1.022085 1.181639 1.109766 1.138842 1.140568
P_10 1.034649 1.138576 0.932086 0.889237 0.996693 0.937408
P_10 0.865782 0.959848 0.919384 0.913164 0.996390 0.957091
P_10 1.017227 1.090061 1.020326 1.044925 1.030227 1.047242
P_10 1.145648 1.038483 0.849871 0.873557 0.772883 0.703474
P_10 0.689217 0.632107 0.521714 0.564670 0.447132 0.510945
P_10 0.522665 0.481238 0.569589 0.572905 0.683009 0.738445
P_10 0.867037 0.859072 0.920510 1.029608 0.995281 1.101749
P_10 1.124447 1.262507 1.161766 1.060546 1.108930 1.124660
P_10 1.160317 1.030996 1.080569 1.033301 1.005904 0.993192
P_10 0.927236 0.951123 0.941007 0.951347 1.000224 0.956534
P_10 1.076526 0.906214 1.025481 1.006529 1.085602 1.061430
P_10 0.926852 0.989738 0.952521 0.909201 0.796493 0.793661
P_10 0.659492 0.664039 0.609028 0.572378 0.507885 0.497441
P_10 0.541423 0.488990 0.550975 0.593545 0.632663 0.753339
P_10 0.839482 0.905300 1.007345 1.122129 1.019678 0.944311
P_10 1.059275 1.162148 1.185174 1.122039 1.030445 1.060970
P_10 0.940471 1.108485 0.941491 0.950581 0.991095 0.967772
P_10 0.868016 0.941869 0.937763 0.940559 0.980570 1.023020
P_10 1.000167 1.038322 1.093451 1.086212 1.024443 1.093016
P_10 1.023800 1.046248 0.914804 0.839772 0.826951 0.824987
P_10 0.734332 0.639666 0.641588 0.556949 0.514011 0.466604
P_10 0.509853 0.566043 0.599906 0.659507 0.785154 0.762198
P_10 0.886069 1.049006 0.998776 1.058121 1.229043 1.155922
P_10 1.081204 1.337093 1.308253 1.210039 1.224012 1.063049
P_10 1.210207 1.170907 1.059639 1.070539 0.960116 0.933455
P_10 0.959629 0.961765 1.013556 0.964665 0.988437 0.948074
P_10 0.982155 0.964987 0.964048 0.957892 0.999013 0.982845
P_10 0.968348 0.942709 1.001157 0.788442 0.872619 0.837725
P_10 0.840984 0.660820 0.652130 0.621932 0.521699 0.568341
P_10 0.505334 0.538148 0.548518 0.529451 0.644279 0.620515
P_10 0.736588 0.829874 0.743939 0.857828 0.893265 1.052554
P_10 1.070858 1.002237 1.038760 1.041933 1.178112 1.071542
P_10 0.941705 0.988741 1.147523 1.095695 1.118347 1.019404
P_10 1.100500 1.038321 1.013036 0.936407 1.025881 1.020233
P_10 0.987027 0.972678 1.082496 0.980872 0.946687 0.904940
P_10 0.889833 0.877185 0.796733 0.786668 0.751743 0.760044
P_10 0.661032 0.677110 0.619182 0.543120 0.532254 0.527067
P_10 0.484149 0.508416 0.569304 0.541498 0.510022 0.593668
P_10 0.594229 0.647743 0.601357 0.682570 0.703829 0.811482
P_10 0.948545 0.956397 0.925336 0.992083 0.958617 0.955975
P_10 0.980544 0.953999 1.002690 0.971696 0.935716 0.978264
P_10 0.898967 0.910145 0.912224 0.899297 0.907427 0.964357
P_10 1.043669 0.904934 0.950477 0.963379 0.984874 0.970064
P_10 0.933512 0.920822 0.860928 0.856861 0.798779 0.709040
P_10 0.709048 0.602493 0.574388 0.459879 0.511300 0.502700
P_10 0.481036 0.540550 0.516484 0.493145 0.682124 0.660311
P_10 0.821337 0.844859 0.936274 0.989458 1.005177 1.085667
P_10 1.171651 1.228979 1.234377 1.332892 1.262357 1.190178
P_10 1.185662 1.101333 1.110821 1.014388 0.984351 0.935936
P_10 0.938411 0.993043 0.884911 0.931133 0.948264 0.963382
P_10 1.001822 1.079999 0.993103 1.113937 1.033052 1.009624
P_10 1.063453 0.960567 1.000882 1.012417 0.812848 0.798553
P_10 0.698549 0.706203 0.585129 0.532188 0.518510 0.507413
P_10 0.503707 0.523044 0.577050 0.569284 0.681486 0.711958
P_10 0.799575 0.869834 0.964497 1.038938 1.028108 1.144141
P_10 1.141029 1.185531 1.063498 1.176347 1.112520 1.173615
P_10 1.117155 1.138547 1.091101 0.927640 0.931465 0.954564
P_10 0.940067 0.859827 0.889775 0.949193 1.018398 0.938691
P_10 0.972827 1.079915 1.174360 0.987100 1.102389 1.097667
P_10 1.091922 0.969494 1.039984 0.989129 0.814672 0.748462
P_10 0.714192 0.625860 0.534689 0.497695 0.505774 0.509870
P_10 0.522742 0.564439 0.529569 0.574489 0.703623 0.735858
P_10 0.780680 0.802997 0.815443 0.999835 1.082152 1.129199
P_10 1.115622 1.134209 1.172658 1.223110 1.180969 1.257887
P_10 1.231217 1.043523 1.075096 1.110500 0.985441 0.964418
P_10 0.996687 0.981421 1.039599 0.924792 0.922414 1.020844
P_10 1.058386 1.015769 1.059942 1.012603 1.107880 0.861962
P_10 1.079210 0.982092 0.976573 0.916446 0.851961 0.791519
P_10 0.751800 0.624634 0.592950 0.618169 0.513125 0.493772
P_10 0.482529 0.519892 0.525706 0.617334 0.599351 0.762419
P_10 0.827264 0.849686 0.899748 0.984308 1.088202 1.051262
P_10 1.097377 1.050368 1.184821 1.176326 1.210011 1.079764
P_10 1.113900 1.095948 1.005021 1.112760 0.877469 0.899029
P_10 0.939937 0.997208 1.038932 0.979461 0.995935 0.947496
P_10 0.980185 1.084894 0.975797 1.043276 0.963251 0.988062
P_10 1.058967 0.988921 0.977961 0.970180 0.886549 0.892249
P_10 0.684512 0.629366 0.617610 0.563765 0.544507 0.494554
P_10 0.529041 0.552191 0.665536 0.619114 0.740871 0.844507
P_10 0.806024 1.019030 1.097027 1.138773 1.172542 1.316848
P_10 1.243379 1.223441 1.412612 1.375667 1.352069 1.230219
P_10 1.213440 1.209352 1.031144 1.083389 1.055840 1.043695
P_10 1.062771 1.022151 1.084060 1.060541 0.995943 0.963532
P_10 1.072612 0.998700 1.047918 1.041467 1.008643 1.094187
P_10 0.946502 0.942625 1.003057 0.966807 0.852138 0.742552
P_10 0.746780 0.743660 0.666891 0.665925 0.603735 0.558544
P_10 0.535697 0.531317 0.532035 0.547724 0.613148 0.630764
P_10 0.708795 0.772135 0.846809 0.876835 0.979244 1.013291
P_10 1.006933 1.050225 1.182946 1.127584 1.093811 1.125684
P_10 1.078589 1.117091 1.172373 0.948494 1.012810 0.996552
P_10 0.992588 1.007071 0.974437 0.943022 0.967278 1.034172
P_10 1.037182 1.031902 0.958078 1.043049 0.929636 0.917032
P_10 0.920145 0.875040 0.867096 0.794729 0.782097 0.751347
P_10 0.772733 0.685290 0.695423 0.584033 0.587520 0.496615
P_10 0.598524 0.526703 0.524933 0.579443 0.572790 0.517219
P_10 0.603220 0.678136 0.656065 0.710960 0.827429 0.850254
P_10 0.895750 0.906739 1.051357 0.959866 1.040887 1.054728
P_10 1.022531 1.044357 1.068834 1.050909 1.004592 0.937729
P_10 0.947246 0.845105 0.925163 0.885306 0.924325 0.943754
P_10 0.929234 1.066087 0.968320 1.040575 1.013383 1.033217
P_10 1.063606 0.928445 0.841178 0.808877 0.789865 0.797910
P_10 0.681718 0.609291 0.543327 0.577217 0.545339 0.500501
P_10 0.458957 0.517189 0.519542 0.597157 0.649290 0.770485
P_10 0.772556 0.854541 0.998160 1.017909 1.115122 1.236369
P_10 1.235068 1.090643 1.219985 1.305309 1.228522 1.217350
P_10 1.062205 1.242558 1.083710 1.037371 0.931967 0.910230
P_10 1.015061 0.947754 0.922068 0.855945 0.948845 1.044754
P_10 0.958428 1.050021 1.069685 1.078328 1.060758 1.106847
P_10 1.027665 1.113364 0.982749 0.893952 0.874919 0.831548
P_10 0.678438 0.679263 0.622655 0.565889 0.505375 0.533746
P_10 0.491058 0.509184 0.522646 0.631507 0.609936 0.759841
P_10 0.805620 0.826616 1.018196 0.954991 1.130771 1.088479
P_10 1.117348 1.122497 1.067457 1.255264 1.168502 1.199839
P_10 1.113887 1.060283 1.026595 0.983978 1.077190 0.936449
P_10 0.877718 0.974691 0.977466 0.954120 0.870740 0.954618
P_10 0.952537 1.023166 1.063393 0.977147 1.068959 1.156451
P_10 1.037953 0.992663 0.972061 0.802635 0.886300 0.772640
P_10 0.658189 0.588974 0.591490 0.578184 0.511899 0.525286
P_10 0.566070 0.549732 0.573599 0.607115 0.647780 0.754647
P_10 0.841341 0.789684 0.981364 0.979865 0.964589 1.126113
P_10 1.126381 1.202957 1.204650 1.060062 1.259101 1.158160
P_10 1.089676 1.084910 1.066492 1.038228 0.970625 0.987317
P_10 0.929404 0.995974 0.986109 0.950759 0.945719 0.948966
P_10 1.039495 1.026819 1.012738 0.972170 1.058283 0.944505
P_10 1.050660 1.028599 0.879097 0.946273 0.860443 0.765269
P_10 0.722889 0.675620 0.607948 0.551627 0.505145 0.493415
P_10 0.508397 0.535079 0.580967 0.648975 0.722745 0.790523
P_10 0.831885 0.968417 0.932575 0.988423 1.071545 1.062504
P_10 1.007881 1.267216 1.059928 1.140727 1.075167 1.119677
P_10 1.068277 1.184756 1.012929 1.047651 1.075526 0.994668
P_10 0.948295 0.924249 0.916978 0.980151 0.976804 1.008853
P_10 1.048156 1.063092 1.073198 1.036611 1.083613 1.145844
P_10 1.031080 1.001207 0.971475 0.926375 0.859664 0.789731
P_10 0.714994 0.675332 0.680447 0.587273 0.551841 0.541179
P_10 0.508857 0.532662 0.620642 0.637349 0.692169 0.819274
P_10 0.852329 0.920756 1.038344 1.172960 1.308941 1.301596
P_10 1.304870 1.303385 1.256119 1.194424 1.388720 1.309901
P_10 1.208616 1.144525 1.131878 1.070087 1.069401 1.045668
P_10 0.962527 1.049221 1.056180 1.003047 1.045701 1.005257
P_10 1.098541 1.016102 1.013670 1.115955 1.097695 1.108787
P_10 1.127254 0.993359 0.943035 1.011197 0.820112 0.857258
P_10 0.744768 0.694836 0.692182 0.610588 0.575929 0.573871
P_10 0.528978 0.544764 0.580751 0.556005 0.565384 0.621093
P_10 0.700518 0.793185 0.792937 0.933988 1.019386 0.994483
P_10 1.105019 1.086854 1.104414 1.216121 1.197330 1.140272
P_10 1.179726 1.175047 1.118109 1.025123 1.037912 1.034659
P_10 1.067044 1.090618 1.013424 0.982315 1.058227 1.057399
P_10 1.056453 1.017523 1.029478 0.999866 1.023364 0.974952
P_10 1.009239 0.885194 0.862521 0.792847 0.808948 0.802613
P_10 0.677268 0.723278 0.685146 0.602827 0.588102 0.548230
P_10 0.554276 0.507944 0.591555 0.546234 0.503410 0.617122
P_10 0.592093 0.668569 0.707588 0.716650 0.852417 0.850222
P_10 0.916834 0.913300 0.916628 1.111766 1.027954 1.024036
P_10 1.054959 1.063494 1.016523 1.087544 1.033508 1.011101
P_10 0.926396 0.930116 0.946663 0.930917 0.983812 0.938065
P_10 0.982529 0.987174 1.072138 0.961916 0.972403 1.105574
P_10 1.024803 0.988346 0.898043 0.821952 0.809131 0.779506
P_10 0.747243 0.665670 0.560279 0.521610 0.550561 0.485806
P_10 0.499621 0.563643 0.564924 0.628479 0.720328 0.782728
P_10 0.718753 0.919655 0.920568 1.069527 1.099245 1.235948
P_10 1.330001 1.230122 1.311428 1.284326 1.125507 1.280461
P_10 1.183043 1.147244 1.095612 1.073658 1.050890 1.016060
P_10 0.946072 0.941278 0.886642 0.915834 0.923850 1.003910
P_10 1.031042 1.063448 1.178215 1.011014 1.130605 1.031390
P_10 1.087500 1.032054 0.912808 0.849965 0.914729 0.857790
P_10 0.756256 0.743398 0.606889 0.522209 0.594950 0.549900
P_10 0.512919 0.538962 0.587104 0.600003 0.629684 0.770104
P_10 0.824563 0.855646 0.939234 0.974941 1.007028 1.118313
P_10 1.200555 1.190555 1.237336 1.114205 1.119725 1.200869
P_10 1.105711 1.144123 1.163321 1.137151 1.027340 0.945084
P_10 0.845274 0.985865 0.961942 0.972636 0.909503 1.041209
P_10 0.981296 1.114618 1.117497 1.143968 1.152803 1.121798
P_10 1.051772 1.085702 0.980511 0.914470 0.795650 0.770956
P_10 0.709905 0.646284 0.584460 0.582642 0.510713 0.529660
P_10 0.521284 0.543154 0.593960 0.597738 0.700379 0.726594
P_10 0.906354 0.875740 1.107442 1.071339 1.015627 1.072560
P_10 1.201542 1.066681 1.232076 1.269835 1.165522 1.217241
P_10 1.163009 1.143127 1.076780 1.091566 0.998823 1.002987
P_10 1.070816 1.012192 1.055723 1.029477 0.992377 0.957548
P_10 0.924487 1.049621 0.959858 1.031864 1.055055 1.084794
P_10 0.979850 0.985032 0.906886 0.978259 0.815469 0.832504
P_10 0.737594 0.605305 0.638157 0.599091 0.551326 0.485257
P_10 0.471769 0.549203 0.624791 0.656071 0.679312 0.721699
P_10 0.865226 0.927553 1.000468 1.108228 1.136342 1.253423
P_10 1.090293 1.173266 1.248638 1.125358 1.223940 1.161367
P_10 1.090425 1.102837 1.060978 0.998770 1.083616 0.985567
P_10 1.027530 0.954685 0.968685 0.912191 1.018051 1.048814
P_10 0.984742 1.078052 1.118895 1.049867 1.007249 1.103065
P_10 1.037865 0.933328 1.012474 0.948001 0.902375 0.905837
P_10 0.781848 0.626918 0.634189 0.607230 0.550518 0.511358
P_10 0.550520 0.614132 0.622630 0.693822 0.786614 0.878870
P_10 1.004458 1.064289 1.143794 1.215863 1.315933 1.148718
P_10 1.376491 1.306392 1.287371 1.267981 1.265400 1.369012
P_10 1.130314 1.164428 1.137803 1.246870 0.982421 1.136661
P_10 1.146056 1.055068 1.018800 0.939073 1.010050 0.944812
P_10 1.102421 1.026286 1.093297 1.066781 1.047490 0.962184
P_10 1.057128 1.070025 0.895622 0.914471 0.838171 0.872880
P_10 0.773406 0.735989 0.704406 0.650471 0.610206 0.534263
P_10 0.561523 0.552215 0.573018 0.595360 0.683216 0.614848
P_10 0.754371 0.774198 0.889713 0.889241 0.941223 1.139222
P_10 1.089790 1.168844 1.082705 1.124521 1.158645 1.114328
P_10 1.078106 1.141089 1.137038 1.088735 1.105283 1.026726
P_10 1.112188 1.048614 1.055099 1.048595 1.060450 1.007267
P_10 1.068020 1.176409 1.055881 1.006371 0.921116 1.057201
P_10 1.021723 0.876368 0.901356 0.880937 0.735994 0.718279
P_10 0.683800 0.667713 0.707181 0.582602 0.596363 0.602760
P_10 0.545740 0.540529 0.580441 0.537580 0.537471 0.585338
P_10 0.620441 0.678258 0.718851 0.783932 0.833462 0.894861
P_10 0.975192 1.113068 1.022813 1.102726 1.103107 1.105276
P_10 1.149756 1.142667 1.072286 1.047120 1.038197 0.991942
P_10 1.003015 0.989787 1.034545 0.979725 0.932729 0.992246
P_10 1.020518 1.008665 0.945708 0.905166 1.107607 0.923560
P_10 0.996441 1.050223 0.921652 1.042877 0.819901 0.797988
P_10 0.669866 0.640445 0.571884 0.576593 0.498979 0.501103
P_10 0.471442 0.528788 0.573816 0.557470 0.703181 0.718213
P_10 0.792366 0.859356 1.047436 1.078608 1.151785 1.266519
P_10 1.202949 1.235092 1.365814 1.381623 1.304647 1.152754
P_10 1.168444 1.228407 1.070751 1.083853 1.139784 0.944376
P_10 0.958165 0.927294 0.971873 1.009236 0.916999 0.972681
P_10 1.018571 1.041197 1.152689 1.139761 1.107152 1.046524
P_10 1.059062 1.061766 1.012180 0.957317 0.889396 0.815115
P_10 0.766699 0.721697 0.594287 0.594375 0.470228 0.535489
P_10 0.576111 0.534498 0.608763 0.607398 0.617664 0.795893
P_10 0.880394 0.879081 0.990892 1.177215 1.109821 1.207718
P_10 1.096089 1.205430 1.227159 1.211050 1.252527 1.178257
P_10 1.201427 1.213766 1.096024 1.087025 1.046840 1.047165
P_10 0.952806 0.968593 0.988151 0.992647 0.976807 1.053577
P_10 0.953055 1.174883 1.163833 1.111505 1.179710 1.103257
P_10 1.094459 1.126852 1.001359 0.920749 0.836891 0.791170
P_10 0.728628 0.707844 0.608346 0.498360 0.591467 0.541902
P_10 0.571152 0.577115 0.566238 0.660838 0.743644 0.843061
P_10 0.807360 0.957717 0.914733 1.030746 1.147722 1.178700
P_10 1.114824 1.248580 1.315640 1.198996 1.191420 1.242540
P_10 1.149703 1.153656 1.108122 1.121314 0.986319 1.022777
P_10 1.016242 1.050400 1.077623 1.081596 0.960289 1.022521
P_10 1.116602 1.084931 1.026312 1.089793 1.115982 1.030347
P_10 1.080447 1.093711 0.995050 1.014357 0.797989 0.806191
P_10 0.789175 0.676814 0.633585 0.586668 0.554442 0.517087
P_10 0.534239 0.588456 0.600585 0.655676 0.760817 0.726840
P_10 0.965845 0.993351 0.911254 1.099473 1.163148 1.156273
P_10 1.097417 1.211173 1.217968 1.193662 1.241101 1.262221
P_10 1.137396 1.067280 1.032831 1.111746 0.989090 1.001226
P_10 0.960644 1.121850 1.128691 1.080990 1.078018 1.040532
P_10 1.132959 1.196481 1.157472 1.248923 1.120704 1.036988
P_10 1.059496 1.130767 1.028712 1.005650 0.885023 0.772126
P_10 0.696656 0.653702 0.702382 0.652728 0.599572 0.547880
P_10 0.605393 0.544871 0.658764 0.688419 0.781483 0.957055
P_10 0.939379 1.070624 1.168342 1.255241 1.426518 1.295295
P_10 1.392951 1.335548 1.326693 1.486491 1.242670 1.342835
P_10 1.082973 1.247548 1.206099 1.059251 1.187193 1.060282
P_10 1.063146 1.183208 1.053224 1.058528 1.195018 1.060998
P_10 1.102089 1.121989 1.118716 1.079222 1.082294 1.089603
P_10 1.159391 0.997294 0.960873 1.019505 0.856324 0.934464
P_10 0.848698 0.698696 0.686558 0.647031 0.654349 0.590519
P_10 0.564589 0.565985 0.583761 0.633038 0.646289 0.729670
P_10 0.782654 0.745792 0.899055 0.966750 0.983883 0.990250
P_10 1.006073 1.124913 1.114764 1.185565 1.267696 1.267327
P_10 1.216453 1.171849 1.271305 1.102465 1.066002 1.067980
P_10 1.108741 1.047998 1.046499 1.139921 1.051619 0.995509
P_10 1.076932 1.087048 1.074941 1.096116 1.048419 0.988617
P_10 1.013222 0.904152 0.810956 0.856903 0.878966 0.779945
P_10 0.774031 0.736299 0.642523 0.587027 0.697854 0.610447
P_10 0.548323 0.569072 0.565808 0.551900 0.586691 0.565546
P_10 0.679503 0.701006 0.755392 0.847718 0.755426 0.904351
P_10 0.978581 0.956684 1.027345 0.978280 1.105406 1.114376
P_10 1.006079 1.044025 1.095119 1.096577 1.057143 0.972987
P_10 0.936091 1.015216 0.975293 1.036060 0.995156 0.966168
P_10 1.001304 1.002909 1.021357 1.026708 1.016566 1.052384
P_10 1.024213 1.007204 0.930229 0.912398 0.922950 0.852713
P_10 0.755748 0.669998 0.604109 0.617889 0.554396 0.516092
P_10 0.549751 0.538477 0.598491 0.572345 0.663761 0.723487
P_10 0.830228 0.971530 0.954958 1.102106 1.126076 1.149231
P_10 1.351533 1.300648 1.342547 1.258016 1.211104 1.303262
P_10 1.127481 1.200181 1.113200 1.046412 1.000616 0.998887
P_10 0.998274 0.944225 0.896054 0.981153 0.941174 1.016018
P_10 1.027781 1.054399 1.064763 1.059665 1.159938 1.072996
P_10 1.093562 1.180811 1.026398 0.952415 0.978563 0.906778
P_10 0.813475 0.756890 0.625623 0.595358 0.545640 0.596039
P_10 0.518493 0.543491 0.549306 0.659154 0.690178 0.811194
P_10 0.882419 0.883807 1.049452 1.030068 1.028288 1.122491
P_10 1.154548 1.260276 1.169591 1.232509 1.346614 1.297281
P_10 1.227523 1.104105 1.119104 1.102974 1.109196 1.007671
P_10 1.144453 1.008186 0.988443 1.000512 0.981187 0.952039
P_10 1.111752 1.109726 1.115163 1.158095 1.138969 1.170407
P_10 1.145936 1.010489 0.934676 0.973482 0.931427 0.786295
P_10 0.786513 0.621163 0.584253 0.583942 0.510677 0.526146
P_10 0.502728 0.558893 0.598638 0.592934 0.686349 0.713755
P_10 0.906792 0.906811 0.990692 1.077802 1.149742 1.243239
P_10 1.142672 1.221542 1.107293 1.194367 1.249481 1.212458
P_10 1.279434 1.159362 1.051496 1.121190 1.085374 1.116169
P_10 1.098832 1.072217 1.034620 1.042096 1.094111 1.078981
P_10 1.003667 1.074086 1.057604 1.097789 1.120789 1.082616
P_10 1.067523 1.151437 1.033922 0.961952 0.977797 0.772290
P_10 0.795203 0.722887 0.568478 0.591325 0.568729 0.556599
P_10 0.572585 0.615583 0.647337 0.710068 0.712557 0.807028
P_10 0.931659 0.898756 1.038728 1.151258 1.109998 1.163772
P_10 1.217758 1.300511 1.264067 1.258143 1.213580 1.231373
P_10 1.039887 1.180676 1.105203 1.103546 0.972966 1.021057
P_10 1.040761 0.874403 1.109178 0.983434 1.081164 1.021771
P_10 0.970701 1.103729 1.049982 1.147695 1.123221 1.148388
P_10 1.117101 1.032120 1.090492 0.997954 0.941884 0.841700
P_10 0.796330 0.710698 0.669960 0.610308 0.524367 0.554437
P_10 0.530157 0.583957 0.644616 0.685960 0.879417 0.863448
P_10 1.048198 1.140958 1.144489 1.282656 1.373243 1.422162
P_10 1.316658 1.430945 1.454526 1.411698 1.338086 1.329518
P_10 1.227562 1.208995 1.166989 1.179819 1.069641 1.109860
P_10 1.080144 1.108075 1.063827 1.015760 1.020072 1.150466
P_10 1.089688 1.068208 1.130486 1.056417 1.081978 1.104979
P_10 1.105353 1.002932 0.987263 0.942100 0.985868 0.866117
P_10 0.842786 0.783097 0.738027 0.707458 0.657632 0.629990
P_10 0.597563 0.586480 0.543892 0.622236 0.636625 0.666497
P_10 0.739117 0.842624 0.903741 1.020480 0.999275 0.997783
P_10 1.124916 1.146461 1.136495 1.050525 1.207192 1.203383
P_10 1.185445 1.318087 1.202941 1.108629 1.071677 1.171455
P_10 1.055301 1.051505 1.118703 1.128025 1.105317 1.081977
P_10 1.110292 1.137080 1.116469 1.092798 1.106169 1.014158
P_10 0.977814 0.984556 0.945422 0.896267 0.762785 0.819705
P_10 0.779339 0.678145 0.696348 0.656061 0.668154 0.666614
P_10 0.631106 0.548468 0.591209 0.618503 0.601048 0.619110
P_10 0.686676 0.746704 0.736008 0.751524 0.931609 0.862233
P_10 1.024815 0.998855 1.050364 1.105573 1.071150 1.089110
P_10 1.127647 1.056153 1.102668 1.018542 1.080224 0.998537
P_10 0.999087 1.017737 0.952382 0.986484 1.010664 1.028247
P_10 1.032314 1.038731 1.065754 1.017365 1.097684 0.997915
P_10 1.029085 1.035865 1.045626 0.912409 0.853181 0.792140
P_10 0.701740 0.704936 0.618776 0.565445 0.556735 0.505838
P_10 0.559232 0.564503 0.599822 0.645923 0.672842 0.787886
P_10 0.829141 1.058890 1.006776 1.095989 1.122896 1.255734
P_10 1.246688 1.401453 1.303252 1.328407 1.401617 1.442188
P_10 1.202369 1.297401 1.111569 1.211124 1.069077 1.016233
P_10 0.958549 0.983012 0.957566 1.044983 1.068076 1.014647
P_10 1.111406 1.113330 1.083291 1.188939 1.147932 1.116873
P_10 1.111212 1.067044 1.101494 1.000506 0.937107 0.919024
P_10 0.757109 0.687201 0.690032 0.613677 0.579403 0.551768
P_10 0.543637 0.622491 0.591656 0.634440 0.723865 0.779403
P_10 0.877574 0.918541 1.038413 1.111851 1.201961 1.331061
P_10 1.204909 1.276062 1.287512 1.177843 1.273801 1.306550
P_10 1.196454 1.154272 1.201516 1.134239 1.144864 1.057026
P_10 1.036325 1.028739 1.033345 0.951109 1.201515 1.126204
P_10 1.078233 1.220133 1.116118 1.093965 1.252168 1.174185
P_10 1.117325 1.076759 1.059604 0.983295 0.916342 0.820051
P_10 0.798157 0.696079 0.591585 0.609127 0.598327 0.560609
P_10 0.542376 0.599463 0.584026 0.742090 0.710726 0.801875
P_10 0.897545 0.985747 1.127118 1.164670 1.231766 1.274728
P_10 1.194287 1.108501 1.308954 1.262570 1.294299 1.288858
P_10 1.183612 1.251355 1.235618 1.101254 1.124978 1.027660
P_10 1.080679 1.093519 1.018134 1.184113 1.031540 1.056548
P_10 1.052434 1.149444 1.222624 1.148886 1.208606 1.221663
P_10 1.147273 1.073853 1.115139 0.970599 0.961685 0.906790
P_10 0.795805 0.761815 0.654382 0.664020 0.551653 0.557423
P_10 0.528104 0.601794 0.593807 0.715594 0.633195 0.769390
P_10 0.868047 0.988252 1.063835 1.110909 1.078661 1.144403
P_10 1.313222 1.277895 1.368511 1.209333 1.211858 1.135066
P_10 1.117518 1.246792 1.174552 1.169687 0.998957 1.049306
P_10 1.117930 1.048825 1.062216 1.049948 1.072284 1.175344
P_10 1.153926 1.176965 1.130847 1.092233 1.225274 1.196455
P_10 1.192093 1.109046 1.116774 1.011146 0.921470 0.946942
P_10 0.820204 0.667768 0.693002 0.582006 0.570075 0.531892
P_10 0.595400 0.626331 0.687501 0.742307 0.795110 0.849336
P_10 0.970185 1.069735 1.234582 1.203003 1.335659 1.418157
P_10 1.390410 1.533430 1.519117 1.562851 1.419829 1.385398
P_10 1.230163 1.402720 1.194366 1.146112 1.137356 1.210322
P_10 1.096093 1.082955 1.088057 1.035900 1.169035 1.123916
P_10 1.156911 1.180144 1.232031 1.191338 1.071641 1.050900
P_10 1.031727 1.070290 1.027925 1.018583 0.964119 0.926198
P_10 0.828032 0.718039 0.762347 0.674204 0.624235 0.619346
P_10 0.592942 0.548121 0.624744 0.641996 0.665494 0.737069
P_10 0.810023 0.818144 0.926394 0.921112 1.072242 1.125769
P_10 1.197050 1.155372 1.202257 1.289665 1.295533 1.229067
P_10 1.287666 1.183430 1.220082 1.224872 1.154218 1.230370
P_10 1.127596 1.161180 1.051597 1.084656 1.116990 1.234544
P_10 1.183272 1.149678 1.180887 1.096622 1.096472 1.062300
P_10 0.970188 1.029127 0.896334 0.873847 0.847973 0.854200
P_10 0.784500 0.662471 0.722708 0.722732 0.623845 0.618192
P_10 0.643236 0.545785 0.589170 0.559738 0.588722 0.633823
P_10 0.688060 0.693608 0.743140 0.900825 0.865915 0.909495
P_10 1.022562 1.014551 1.150421 1.104638 1.132643 1.260881
P_10 1.177553 1.102324 1.121520 1.067583 1.148179 1.097750
P_10 1.087415 1.021523 1.095787 1.063923 0.934790 1.089259
P_10 1.097453 1.110452 1.053279 1.115709 1.099286 1.114954
P_10 1.085141 1.114693 1.016826 0.901678 0.858401 0.754562
P_10 0.839984 0.722856 0.635778 0.632453 0.549027 0.538060
P_10 0.486636 0.596163 0.632239 0.676144 0.711549 0.904299
P_10 0.861564 0.968106 0.997654 1.226528 1.143956 1.255885
P_10 1.259508 1.380803 1.443825 1.373426 1.275699 1.322007
P_10 1.309984 1.265006 1.190462 1.118061 1.157152 1.031890
P_10 1.016194 1.010713 0.943620 1.093819 1.031520 1.089522
P_10 1.072904 1.088786 1.122043 1.166057 1.205560 1.093802
P_10 1.102266 1.203830 1.144677 1.008445 0.978590 0.857976
P_10 0.789783 0.752395 0.718935 0.594825 0.594335 0.587638
P_10 0.556716 0.590928 0.607189 0.641336 0.729644 0.796666
P_10 0.811577 0.806889 1.112532 1.148455 1.269447 1.244766
P_10 1.363450 1.296409 1.343643 1.344995 1.274542 1.290029
P_10 1.238463 1.276533 1.174667 1.149728 1.183766 1.080685
P_10 1.055279 1.071568 1.132357 1.114352 1.088306 0.963854
P_10 1.149748 1.194084 1.172618 1.203776 1.186785 1.299738
P_10 1.185016 1.066009 1.137939 1.094465 1.027638 0.875671
P_10 0.793803 0.710420 0.689803 0.570860 0.589902 0.534641
P_10 0.571945 0.609401 0.610078 0.661980 0.778165 0.863850
P_10 0.894884 1.034735 0.980678 1.109756 1.160993 1.350812
P_10 1.246959 1.244301 1.417946 1.335151 1.364319 1.326837
P_10 1.235075 1.249591 1.244443 1.039518 1.125625 1.025614
P_10 1.064383 1.042802 1.078224 1.111824 1.111264 1.148114
P_10 1.179403 1.087125 1.240351 1.274148 1.227522 1.106683
P_10 1.117746 1.156221 1.100612 0.998746 0.965034 0.875440
P_10 0.743336 0.723368 0.677775 0.580190 0.613087 0.542932
P_10 0.546940 0.585785 0.606251 0.652985 0.731611 0.813266
P_10 0.973212 0.940382 1.065280 1.170043 1.229901 1.238695
P_10 1.336924 1.325909 1.231235 1.199928 1.313596 1.203868
P_10 1.193097 1.185821 1.119717 1.058103 1.076258 1.129340
P_10 1.078067 1.045236 1.045762 1.043931 1.131020 1.233117
P_10 1.183989 1.197090 1.226894 1.137891 1.181509 1.082950
P_10 1.213909 1.156156 1.128994 1.056612 1.013670 0.881487
P_10 0.857903 0.786035 0.690515 0.620546 0.603171 0.538754
P_10 0.610022 0.662117 0.678702 0.741334 0.790570 0.810654
P_10 0.975675 1.115219 1.242359 1.292096 1.394367 1.474790
P_10 1.401370 1.286210 1.449827 1.474606 1.349299 1.356050
P_10 1.366966 1.247669 1.275480 1.249178 1.157167 1.149173
P_10 1.112945 1.131679 1.047376 1.123842 1.105193 1.199166
P_10 1.209025 1.164828 1.197138 1.226698 1.030192 1.118686
P_10 1.067088 1.225929 1.095024 1.064023 1.003826 0.957313
P_10 0.856089 0.790591 0.652833 0.633868 0.739033 0.683585