; Filename: networks/Net1.inp
; WNTR: 0.1.6
; Created: 2019-04-09 13:26:57
[TITLE]
EPANET Example Network 1
A simple example of modeling chlorine decay. Both bulk and
wall reactions are included.

[JUNCTIONS]
;ID                      Elevation       Demand Pattern                 
 10                               710               0                            ;
 11                               710               0                            ;
 12                               700               0                            ;
 13                               695               0                            ;
 21                               700               0                            ;
 22                               695               0                            ;
 23                               690               0                            ;
 31                               700               0                            ;
 32                               710               0                            ;

[RESERVOIRS]
;ID                                   Head                  Pattern
 9                                800                            ;

[TANKS]
;ID                              Elevation           Init Level            Min Level            Max Level             Diameter           Min Volume Volume Curve        
 2                                850             120             100             150            50.5               0                        ;

[PIPES]
;ID                   Node1                Node2                              Length             Diameter            Roughness           Minor Loss               Status
 10                   10                   11                             10530              18             100               0                 Open   ;
 11                   11                   12                              5280              14             100               0                 Open   ;
 12                   12                   13                              5280              10             100               0                 Open   ;
 21                   21                   22                              5280              10             100               0                 Open   ;
 22                   22                   23                              5280              12             100               0                 Open   ;
 31                   31                   32                              5280               6             100               0                 Open   ;
 110                  2                    12                               200              18             100               0                 Open   ;
 111                  11                   21                              5280              10             100               0                 Open   ;
 112                  12                   22                              5280              12             100               0                 Open   ;
 113                  13                   23                              5280               8             100               0                 Open   ;
 121                  21                   31                              5280               8             100               0                 Open   ;
 122                  22                   32                              5280               6             100               0                 Open   ;

[PUMPS]
;ID                   Node1                Node2                Properties          
 9                    9                    10                   HEAD     1                      ;

[VALVES]
;ID                   Node1                Node2                            Diameter Type              Setting           Minor Loss

[TAGS]
;type      name       tag       

[DEMANDS]
;ID        Demand     Pattern   
10         0.0        P_10      
11         150.0      P_11      
12         150.0      P_12      
13         100.0      P_13      
21         150.0      P_21      
22         200.0      P_22      
23         150.0      P_23      
31         100.0      P_31      
32         100.0      P_32      

[STATUS]
;ID        Setting   
[PATTERNS]
;ID        Multipliers

1 1.000000 1.200000 1.400000 1.600000 1.400000 1.200000
1 1.000000 0.800000 0.600000 0.400000 0.600000 0.800000

P_10 0.657324 0.510558 0.559150 0.483039 0.453286 0.388023
P_10 0.425635 0.447778 0.486050 0.514334 0.625256 0.711850
P_10 0.757137 0.822279 0.914968 0.983501 1.167394 1.073912
P_10 1.160289 1.232971 1.251024 1.348382 1.286813 1.181588
P_10 1.186439 1.135469 1.141757 1.068589 0.995626 0.908330
P_10 0.914220 0.984662 0.946453 0.870296 0.935802 0.989136
P_10 0.954848 1.014285 1.042449 1.071358 1.061699 0.971020
P_10 1.034563 0.996508 0.911067 0.858316 0.860159 0.735774
P_10 0.589467 0.543144 0.549898 0.528022 0.463843 0.449754
P_10 0.507769 0.464597 0.484803 0.596095 0.635048 0.580472
P_10 0.765910 0.852643 1.010317 1.015683 1.115629 1.058931
P_10 1.212475 1.273260 1.153249 1.212960 1.196885 1.175370
P_10 1.242745 1.089214 1.124671 1.004812 0.977196 0.911044
P_10 0.954640 0.925105 0.917370 0.960051 0.939101 0.905676
P_10 1.023815 1.098516 1.054498 1.098066 0.978670 1.035872
P_10 1.026776 0.963083 0.863155 0.786235 0.819548 0.733193
P_10 0.654069 0.590358 0.517372 0.472984 0.467960 0.384132
P_10 0.470310 0.480423 0.467419 0.571406 0.652955 0.676383
P_10 0.781731 0.859259 0.953402 0.987450 1.098687 1.152127
P_10 1.153219 1.298634 1.169383 1.258077 1.253141 1.256931
P_10 1.186719 1.194538 1.084496 1.146495 1.156725 0.990498
P_10 1.122480 1.062201 0.949789 0.943426 0.999298 1.059054
P_10 1.012654 0.961716 0.965686 1.008373 0.993247 0.996901
P_10 1.105597 0.990390 0.877923 0.850618 0.811623 0.713096
P_10 0.655281 0.506607 0.586757 0.449382 0.455810 0.450557
P_10 0.445022 0.429792 0.466628 0.565731 0.703617 0.733385
P_10 0.858934 0.920442 0.989424 1.054606 1.094331 1.141683
P_10 1.217550 1.210478 1.078422 1.190944 1.069903 1.120630
P_10 1.081597 0.975831 1.096414 1.097359 1.038038 1.029741
P_10 0.951171 1.006724 0.925559 0.995581 1.009236 0.971987
P_10 1.004936 1.006473 0.955166 1.037941 1.106603 1.058911
P_10 0.928360 0.972806 0.967876 0.889134 0.785856 0.664095
P_10 0.617983 0.600375 0.519462 0.481795 0.479061 0.455683
P_10 0.486406 0.470506 0.540854 0.612919 0.719074 0.753700
P_10 0.913836 1.001499 1.061597 1.190999 1.240357 1.371245
P_10 1.300824 1.335130 1.387389 1.309320 1.326131 1.271491
P_10 1.221174 1.213820 1.126699 1.154033 1.102779 1.067304
P_10 1.074431 1.082893 0.961454 1.088808 1.038921 1.034275
P_10 1.103547 1.073495 1.087989 0.938020 0.992423 0.990668
P_10 0.984980 0.869342 0.916641 0.800035 0.766907 0.805672
P_10 0.694639 0.681635 0.560288 0.542288 0.523405 0.497332
P_10 0.502908 0.466808 0.530049 0.531283 0.506289 0.613576
P_10 0.629518 0.715289 0.817398 0.873345 0.923065 0.905795
P_10 1.046682 1.148407 1.154884 1.203171 1.098341 1.085466
P_10 1.011640 1.178683 1.055961 1.104216 1.023369 1.078362
P_10 1.065786 1.023430 1.104201 1.061143 1.118307 1.014946
P_10 0.936047 0.989554 0.940607 0.928813 0.863466 0.895861
P_10 0.839679 0.852549 0.709976 0.723597 0.737270 0.694436
P_10 0.653308 0.573252 0.587594 0.555157 0.542644 0.512729
P_10 0.515758 0.482247 0.463638 0.480123 0.528528 0.559066
P_10 0.569017 0.627693 0.681822 0.744595 0.816419 0.885868
P_10 0.867834 0.961769 1.017140 1.075902 1.164194 1.099225
P_10 1.151543 1.155992 1.078734 1.033233 1.022443 0.977768
P_10 0.990870 0.883524 0.908371 0.862959 0.899860 0.838185
P_10 1.044312 0.906503 0.983523 0.871572 1.016897 1.070017
P_10 1.000655 0.927101 0.848788 0.855281 0.714222 0.677034
P_10 0.636581 0.550782 0.501378 0.477949 0.421266 0.449392
P_10 0.410231 0.438900 0.486348 0.550503 0.634401 0.659472
P_10 0.762155 0.763435 1.000539 1.056851 1.079652 1.157967
P_10 1.307895 1.288586 1.249533 1.304600 1.368342 1.321975
P_10 1.227677 1.174165 1.128531 1.063642 1.090576 0.978247
P_10 0.893669 0.935052 0.847067 0.890580 1.023397 0.919770
P_10 0.943535 0.956812 0.936716 1.034089 1.099776 1.153825
P_10 1.101322 0.957462 0.970022 0.812482 0.866522 0.760291
P_10 0.641668 0.601382 0.507449 0.460486 0.467192 0.490143
P_10 0.440632 0.487236 0.526000 0.581454 0.661507 0.660341
P_10 0.838748 0.871357 0.859816 0.852407 1.048054 1.174318
P_10 1.055883 1.301507 1.193457 1.233555 1.193349 1.143012
P_10 1.176269 1.090018 1.085065 1.062761 0.890287 0.931647
P_10 1.052091 0.934532 0.930198 0.958244 0.858989 0.996785
P_10 0.961948 1.154570 1.008009 1.130266 1.067552 1.077980
P_10 1.011539 0.926788 0.977893 0.919898 0.827928 0.722104
P_10 0.616801 0.595034 0.515807 0.472913 0.441931 0.481457
P_10 0.443241 0.464223 0.533074 0.623234 0.671068 0.727242
P_10 0.822004 0.900957 0.985316 0.978586 1.155762 1.167041
P_10 1.186152 1.194689 1.219080 1.171474 1.294623 1.198890
P_10 1.134632 1.205971 1.121769 1.101797 1.077493 1.123221
P_10 1.059805 0.959644 0.955010 0.960402 0.983507 0.903921
P_10 0.930236 1.030186 1.109827 1.019258 1.101032 1.080896
P_10 0.956447 0.992106 0.969894 0.883564 0.814896 0.780904
P_10 0.693082 0.614254 0.512617 0.483800 0.445157 0.443531
P_10 0.439445 0.460793 0.502329 0.539177 0.678275 0.684507
P_10 0.807972 0.867024 0.876214 1.057975 1.046128 1.185918
P_10 1.119448 1.256498 1.206350 1.272303 1.139401 1.087203
P_10 1.070176 1.054107 1.116937 1.029072 1.014278 1.037149
P_10 1.007660 0.979697 1.008947 1.011393 1.127215 0.996796
P_10 1.018777 1.027498 1.121701 1.058997 0.980659 0.995794
P_10 1.007708 1.032661 0.945697 0.835287 0.777476 0.657192
P_10 0.655737 0.606223 0.540411 0.525224 0.461775 0.435174
P_10 0.455139 0.490420 0.561469 0.638598 0.660316 0.752407
P_10 0.913510 0.952745 1.104642 1.168225 1.221005 1.438586
P_10 1.391338 1.335094 1.400942 1.377773 1.325179 1.374023
P_10 1.268480 1.211698 1.104505 1.060266 1.022909 1.061276
P_10 1.032605 0.995919 0.932862 1.129130 1.091236 1.092480
P_10 0.933614 1.067706 1.101112 1.047215 0.996054 1.104400
P_10 0.984547 0.901831 0.963023 0.823998 0.735627 0.723968
P_10 0.720097 0.651012 0.628164 0.500455 0.478931 0.438349
P_10 0.503366 0.537393 0.542775 0.516983 0.560966 0.604766
P_10 0.688912 0.774811 0.753795 0.869438 0.999127 1.046070
P_10 1.069327 1.033537 1.107770 1.253404 1.161447 1.179383
P_10 1.103897 1.155689 1.206588 1.330369 1.153205 1.068478
P_10 1.127692 1.089429 1.010239 1.003630 1.092990 1.089408
P_10 1.037723 1.040048 1.148980 1.016472 0.949767 0.957688
P_10 0.939886 0.839219 0.772790 0.734275 0.679473 0.684191
P_10 0.586595 0.581851 0.562785 0.534564 0.534900 0.499309
P_10 0.500734 0.489839 0.527773 0.476401 0.544283 0.580118
P_10 0.588288 0.601696 0.689113 0.774491 0.788277 0.872963
P_10 0.892506 1.004472 1.087868 0.997937 1.152555 1.045024
P_10 1.196763 1.032459 1.136699 0.992752 0.952197 1.013879
P_10 1.022459 0.994728 0.986836 0.947733 0.897108 0.974514
P_10 0.914871 0.974145 0.966455 1.036106 0.931662 0.984956
P_10 0.930358 0.975509 0.847341 0.904840 0.758214 0.774930
P_10 0.617278 0.572607 0.514277 0.502468 0.466253 0.461726
P_10 0.429689 0.448910 0.473110 0.583656 0.602890 0.739715
P_10 0.744944 0.864348 0.948349 1.068207 1.062209 1.218910
P_10 1.375228 1.258864 1.459761 1.244894 1.372377 1.299035
P_10 1.283761 1.198849 1.158837 1.047382 1.101274 1.033303
P_10 0.910181 1.023191 0.913942 0.904127 0.953870 0.997876
P_10 1.033812 1.045045 1.014166 1.052734 1.108977 1.017612
P_10 1.044322 1.017409 0.937483 0.821030 0.798841 0.708327
P_10 0.588567 0.619881 0.541754 0.477165 0.408001 0.461947
P_10 0.434313 0.507212 0.529181 0.600544 0.610946 0.722352
P_10 0.775662 0.825200 0.939470 1.039187 1.144695 1.234064
P_10 1.237036 1.258137 1.223707 1.221345 1.223657 1.152396
P_10 1.142858 1.151050 1.138849 0.979620 1.065861 1.049392
P_10 1.002050 1.023278 0.992209 0.917614 1.006756 1.060090
P_10 1.055023 1.021222 1.061089 1.048781 1.143308 1.023972
P_10 1.102071 1.013498 0.901324 0.889001 0.775728 0.755702
P_10 0.622528 0.624792 0.525351 0.510519 0.466478 0.467378
P_10 0.446133 0.475946 0.546535 0.591455 0.683665 0.780681
P_10 0.793591 0.878654 0.986347 0.995888 1.136685 1.176401
P_10 1.339355 1.174635 1.264472 1.267185 1.288570 1.212849
P_10 1.211398 1.217796 1.215234 0.993927 1.188644 1.050707
P_10 1.001897 0.987057 1.004830 1.005522 0.979506 1.033006
P_10 1.120251 1.038058 1.077400 1.067956 1.096405 1.112946
P_10 1.027337 1.036907 0.946716 0.880658 0.839022 0.799800
P_10 0.693333 0.587973 0.525623 0.506542 0.462403 0.457153
P_10 0.441521 0.496081 0.532171 0.575584 0.617010 0.700841
P_10 0.804846 0.923629 1.008443 1.165719 1.269241 1.205209
P_10 1.222279 1.178455 1.265882 1.230075 1.182309 1.353654
P_10 1.207172 1.192318 1.080855 1.130462 1.069379 1.058179
P_10 1.044567 0.882244 1.029370 1.050089 0.971752 0.876956
P_10 1.127695 1.051621 1.080932 1.088652 1.029231 0.962942
P_10 0.965924 0.974314 0.957854 0.900755 0.833668 0.795969
P_10 0.719559 0.600549 0.582648 0.505413 0.471551 0.455053
P_10 0.459885 0.549795 0.583652 0.643580 0.699351 0.862248
P_10 0.958100 1.025168 1.128338 1.164557 1.303598 1.371125
P_10 1.336810 1.377800 1.339315 1.378758 1.319568 1.165278
P_10 1.172425 1.151914 1.186353 1.218256 1.089999 1.066045
P_10 1.035830 0.970531 1.112830 1.050308 1.167398 0.985545
P_10 1.102339 1.010517 1.127931 1.082570 0.924723 0.967439
P_10 1.079017 0.933901 0.922118 0.849817 0.862640 0.745866
P_10 0.688686 0.653831 0.597819 0.610568 0.517582 0.518137
P_10 0.437640 0.496640 0.489990 0.480005 0.575387 0.660368
P_10 0.749572 0.808107 0.774294 0.925947 1.109274 1.104003
P_10 1.124059 1.084038 1.197453 1.088318 1.122067 1.173291
P_10 1.201241 1.215344 1.183550 1.161326 1.117931 1.120685
P_10 1.058291 1.158866 1.059400 1.049363 1.067508 1.078655
P_10 1.038081 1.195961 1.073836 0.976714 0.910247 0.942059
P_10 0.894226 0.848559 0.777542 0.736977 0.760390 0.678593
P_10 0.621854 0.667547 0.588531 0.575814 0.499355 0.527346
P_10 0.457558 0.534283 0.514642 0.533331 0.514838 0.547125
P_10 0.626091 0.651870 0.687477 0.811035 0.805367 0.883691
P_10 0.998942 0.989487 0.979290 1.180317 1.080592 1.167763
P_10 1.083463 1.145452 1.143464 1.091904 1.084653 0.980980
P_10 0.999395 1.061501 0.952148 0.963777 1.049277 1.089200
P_10 1.027867 0.996470 1.067325 1.000308 0.978213 0.994445
P_10 1.049485 1.017278 0.823479 0.876706 0.722687 0.730211
P_10 0.634668 0.565228 0.538305 0.470281 0.474447 0.429712
P_10 0.465585 0.440204 0.473015 0.602394 0.696136 0.724066
P_10 0.821375 0.996797 0.990916 1.030229 1.121471 1.276640
P_10 1.320006 1.324234 1.409223 1.450716 1.286602 1.371450
P_10 1.270356 1.282154 1.144648 1.089689 1.000178 1.102135
P_10 0.870529 0.929632 0.910483 0.872564 0.932414 0.915240
P_10 0.963521 1.033018 1.060414 1.063690 1.165022 1.087686
P_10 1.092265 0.946205 0.964354 0.932618 0.809854 0.743955
P_10 0.682072 0.658840 0.536974 0.507618 0.473885 0.476562
P_10 0.485813 0.470663 0.534402 0.548218 0.673548 0.758533
P_10 0.918209 0.903589 0.948398 1.021645 1.098351 1.238547
P_10 1.227832 1.261402 1.296073 1.340756 1.203413 1.215847
P_10 1.267291 1.217805 1.125110 1.173303 1.089268 1.125374
P_10 1.008483 1.054236 0.935509 0.974210 1.041047 0.991926
P_10 1.065827 1.121333 1.010927 1.135114 1.186791 1.191614
P_10 1.016943 1.029005 1.030151 0.916333 0.817975 0.790177
P_10 0.703760 0.644118 0.527810 0.536874 0.472007 0.450261
P_10 0.445397 0.458547 0.490711 0.620550 0.680508 0.801509
P_10 0.799027 0.883933 0.977531 1.104145 1.127526 1.196944
P_10 1.137544 1.308493 1.302000 1.168681 1.188138 1.101017
P_10 1.324366 1.253131 1.172783 1.177533 1.126118 0.970718
P_10 1.056925 0.992836 1.048676 1.050169 1.044318 1.072520
P_10 1.091860 1.066101 1.107190 0.993302 1.050673 1.054715
P_10 0.964143 1.008260 0.901051 0.876610 0.846263 0.772392
P_10 0.707254 0.592184 0.575474 0.541576 0.514348 0.442320
P_10 0.441472 0.480759 0.555396 0.596734 0.672714 0.734489
P_10 0.772902 0.952325 1.023718 1.038701 1.043301 1.173453
P_10 1.184298 1.192079 1.247131 1.340333 1.224629 1.125152
P_10 1.158810 1.082310 1.102326 1.121987 1.034391 0.995867
P_10 1.097006 0.952458 1.072546 1.127022 1.065987 1.069581
P_10 1.056496 1.096472 1.180101 1.146155 1.231753 1.055119
P_10 0.950350 0.931043 0.967560 0.906884 0.843405 0.795660
P_10 0.689580 0.651057 0.547090 0.577431 0.482289 0.457971
P_10 0.493434 0.539364 0.568400 0.598611 0.793338 0.823909
P_10 0.924103 1.040820 1.168356 1.197915 1.356874 1.377734
P_10 1.364666 1.472942 1.413768 1.436358 1.373092 1.314074
P_10 1.290894 1.274106 1.185258 1.131120 0.961412 1.172607
P_10 1.027291 1.065816 1.045768 1.134464 1.022790 1.056812
P_10 1.082095 1.029071 1.178729 1.114762 1.006969 1.060728
P_10 0.974282 0.970122 0.889226 0.874318 0.856438 0.789643
P_10 0.787333 0.724138 0.622184 0.578097 0.563904 0.501146
P_10 0.478162 0.526018 0.519805 0.557667 0.533100 0.675743
P_10 0.732062 0.741503 0.907373 0.931196 1.032206 1.053948
P_10 1.101018 1.211175 1.204702 1.208676 1.130839 1.315079
P_10 1.283579 1.210020 1.192383 1.195289 1.131867 1.093586
P_10 1.142115 1.114782 1.022387 1.125146 1.126690 1.098450
P_10 1.020300 1.028720 0.996133 1.013637 0.939035 0.915579
P_10 0.964246 0.854195 0.834730 0.710331 0.682816 0.669645
P_10 0.646976 0.585876 0.611496 0.554490 0.551996 0.521522
P_10 0.512334 0.547495 0.539192 0.517766 0.488768 0.577442
P_10 0.597564 0.754563 0.672910 0.731066 0.871517 0.923467
P_10 1.039748 1.063121 1.144372 1.141595 1.043310 1.162626
P_10 1.146276 1.118935 1.008047 1.061474 1.074190 1.062445
P_10 0.993849 1.017972 0.962136 0.885956 0.977307 1.057662
P_10 1.057383 1.020669 1.018854 1.054561 0.999839 0.984666
P_10 0.954807 0.994251 0.867655 0.882330 0.826018 0.731584
P_10 0.700653 0.590407 0.508654 0.530599 0.471955 0.455161
P_10 0.469740 0.463938 0.546359 0.553691 0.623582 0.697879
P_10 0.862693 0.913196 1.089457 1.066587 1.178481 1.180849
P_10 1.365171 1.361959 1.239945 1.459560 1.386385 1.310715
P_10 1.301136 1.197255 1.285261 1.106620 1.085097 1.130867
P_10 0.953781 0.964562 0.977165 0.936952 0.964000 1.011068
P_10 0.990818 0.995271 1.164966 1.126914 1.098664 1.066783
P_10 1.088603 0.997696 0.930412 0.903677 0.858758 0.757998
P_10 0.688680 0.617650 0.553346 0.464462 0.505980 0.462161
P_10 0.481027 0.469706 0.543895 0.569558 0.611273 0.695274
P_10 0.855909 0.885971 0.941139 1.066916 1.164658 1.274727
P_10 1.371993 1.333359 1.267909 1.321043 1.139639 1.346155
P_10 1.274785 1.287323 1.174017 1.141835 1.043166 1.050924
P_10 0.983999 1.001524 0.980685 1.016131 1.022404 1.116367
P_10 1.073996 1.155667 1.116737 1.309066 1.171953 1.102274
P_10 1.141626 1.061118 1.004664 0.888666 0.870825 0.720530
P_10 0.651806 0.621639 0.551092 0.506868 0.474950 0.442701
P_10 0.438447 0.539432 0.585275 0.641252 0.706071 0.774396
P_10 0.848901 0.953443 1.075622 1.127889 1.180523 1.136303
P_10 1.276993 1.212329 1.338699 1.328042 1.280427 1.134882
P_10 1.253370 1.155726 1.232979 1.174732 1.213384 1.015626
P_10 0.992976 0.992358 1.064944 1.088072 1.232446 1.058309
P_10 1.038952 1.047993 1.031025 1.069545 1.116914 1.122610
P_10 1.085536 1.036904 1.034873 0.966041 0.871916 0.765656
P_10 0.724245 0.601466 0.555751 0.529792 0.465135 0.482061
P_10 0.454009 0.462764 0.537225 0.623446 0.777686 0.806075
P_10 0.825835 0.855645 1.054899 1.121117 1.202697 1.264257
P_10 1.278270 1.272479 1.379265 1.293028 1.209628 1.266859
P_10 1.241064 1.241554 1.215240 1.099908 1.085640 1.075506
P_10 1.121970 1.019957 1.104243 1.079110 1.093670 0.970542
P_10 1.112653 1.127738 1.072226 1.075687 1.131482 1.083042
P_10 1.004251 1.075370 0.932077 0.969753 0.899469 0.896831
P_10 0.724219 0.653968 0.567026 0.542556 0.509957 0.479078
P_10 0.516579 0.492792 0.562560 0.610561 0.743518 0.833613
P_10 1.034524 1.096523 1.112161 1.182574 1.229563 1.466609
P_10 1.471328 1.500849 1.514463 1.531751 1.432993 1.494623
P_10 1.376353 1.353367 1.291957 1.154342 1.210439 1.028795
P_10 1.185663 1.147570 1.154278 1.037812 1.032392 1.169759
P_10 1.075558 1.129082 1.096068 1.131814 1.189864 0.991283
P_10 1.015653 1.030692 0.915307 0.928376 0.844311 0.808692
P_10 0.751249 0.663494 0.612805 0.630544 0.578170 0.493957
P_10 0.477575 0.509530 0.501451 0.563955 0.609766 0.708264
P_10 0.707243 0.816987 0.849983 0.954163 0.958326 1.115295
P_10 1.142409 1.230895 1.309778 1.240380 1.304110 1.225336
P_10 1.147462 1.298284 1.230282 1.142478 1.084237 1.151217
P_10 1.118521 1.311570 1.096662 1.247521 1.173973 1.073430
P_10 1.149651 1.156180 1.048240 1.065960 0.971383 0.981068
P_10 0.998402 0.989776 0.890720 0.804690 0.759578 0.673335
P_10 0.638248 0.676126 0.561319 0.636804 0.576650 0.550162
P_10 0.526041 0.551907 0.506139 0.527692 0.514943 0.570262
P_10 0.601657 0.633511 0.693380 0.773124 0.865294 0.909804
P_10 0.971487 1.030183 1.178211 1.235905 1.135923 1.221383
P_10 1.244552 1.188907 1.156874 1.247108 1.129976 1.115597
P_10 1.098490 0.994717 0.960782 1.041077 1.014842 0.989339
P_10 1.003204 1.022721 1.047153 1.088656 1.021410 1.001650
P_10 0.966522 1.006191 0.984711 0.806948 0.836518 0.784676
P_10 0.614867 0.606723 0.569214 0.490448 0.467309 0.474015
P_10 0.499191 0.508941 0.522655 0.609554 0.669659 0.763471
P_10 0.687416 0.905377 1.092403 1.147407 1.179035 1.289220
P_10 1.422098 1.284511 1.345162 1.238945 1.433026 1.258531
P_10 1.315982 1.244639 1.221239 1.271394 1.142608 1.087345
P_10 1.045268 0.989022 0.879040 0.920820 0.903037 0.990054
P_10 0.995918 1.031488 1.216286 1.198061 1.125037 1.079793
P_10 1.072302 1.074880 0.933368 0.958439 0.778688 0.772471
P_10 0.745915 0.638362 0.552276 0.519715 0.500025 0.472751
P_10 0.475884 0.512427 0.555263 0.599915 0.658807 0.707550
P_10 0.856453 0.917200 1.058351 1.143335 1.162187 1.184014
P_10 1.337513 1.333379 1.363824 1.221785 1.221151 1.235661
P_10 1.289499 1.186873 1.133164 1.084213 1.156658 1.001386
P_10 1.110633 1.019518 1.030792 1.031384 1.032916 1.148736
P_10 1.101817 1.099225 1.263115 1.151903 1.172665 1.132120
P_10 1.114681 1.035658 1.046013 0.929495 0.887926 0.787606
P_10 0.765736 0.611474 0.569097 0.510311 0.496611 0.480026
P_10 0.516958 0.505809 0.640695 0.604725 0.730384 0.836657
P_10 0.855675 0.969606 1.021132 1.169458 1.158689 1.174779
P_10 1.237523 1.335635 1.287283 1.444069 1.298857 1.346234
P_10 1.230066 1.301223 1.161239 1.247938 1.215816 1.134134
P_10 1.003846 1.068998 1.108716 1.139001 1.025865 1.055784
P_10 1.191969 1.086521 1.097387 1.137739 1.199954 1.165691
P_10 1.102024 1.089271 1.091630 0.918835 0.871763 0.804294
P_10 0.722041 0.562001 0.578580 0.556078 0.510257 0.505528
P_10 0.518593 0.504053 0.574515 0.591288 0.642936 0.827800
P_10 0.821257 0.941926 1.127057 1.143650 1.296922 1.313045
P_10 1.360766 1.372293 1.335814 1.255912 1.332744 1.343321
P_10 1.258458 1.193759 1.247023 1.206731 1.155908 1.125992
P_10 1.054431 1.041507 1.127456 1.035824 1.169259 0.964852
P_10 1.098964 1.110228 1.090777 1.147654 1.188209 1.031434
P_10 1.170044 1.057606 1.041128 0.935877 0.811154 0.816436
P_10 0.719255 0.689890 0.546171 0.532925 0.496227 0.461825
P_10 0.518678 0.491467 0.610361 0.674527 0.764072 0.892459
P_10 0.943138 1.095810 1.168802 1.351073 1.436138 1.379777
P_10 1.412634 1.550791 1.489839 1.405902 1.454890 1.424441
P_10 1.340202 1.257434 1.317575 1.174322 1.220762 1.181322
P_10 1.178915 1.061403 1.123843 1.166185 1.070578 1.184808
P_10 1.150699 1.157722 1.225373 1.084504 1.135493 1.064769
P_10 1.067495 0.972399 1.021544 0.917597 0.829822 0.781251
P_10 0.788526 0.716674 0.644311 0.568697 0.578845 0.549464
P_10 0.537556 0.565598 0.579902 0.545295 0.661327 0.685473
P_10 0.666023 0.858741 0.924650 1.006075 1.005442 1.103302
P_10 1.228335 1.228214 1.300376 1.279100 1.219613 1.233075
P_10 1.327649 1.200728 1.189634 1.126441 1.167526 1.131770
P_10 1.263910 1.212751 1.119143 1.208991 1.221149 1.183488
P_10 1.120875 1.100322 1.016403 1.089832 1.092971 1.005143
P_10 0.995509 0.951447 0.873743 0.803835 0.825844 0.767267
P_10 0.704106 0.628282 0.679656 0.555637 0.585176 0.559710
P_10 0.530854 0.523906 0.525370 0.562587 0.594598 0.594123
P_10 0.637794 0.712696 0.655046 0.779161 0.799711 1.053361
P_10 1.108279 1.083652 1.007228 1.161402 1.258531 1.177164
P_10 1.266224 1.125866 1.224150 1.129035 1.079262 0.989637
P_10 1.185292 1.007589 1.087191 1.062229 1.073203 1.049688
P_10 1.070646 1.091148 1.086211 0.951276 1.060065 1.093206
P_10 1.025468 0.988543 1.029696 0.906030 0.808070 0.703063
P_10 0.632750 0.567285 0.544296 0.532182 0.486458 0.445111
P_10 0.492700 0.521559 0.548063 0.567626 0.695916 0.730921
P_10 0.872420 0.982081 0.996379 1.146863 1.297072 1.344087
P_10 1.296198 1.401268 1.418608 1.284723 1.407610 1.326226
P_10 1.308944 1.370388 1.180489 1.130311 1.106705 1.084955
P_10 1.169698 1.028523 0.976510 1.046726 0.931927 0.990138
P_10 1.091221 1.074833 1.083107 1.109175 1.204662 1.145215
P_10 1.138223 1.114430 1.007263 0.956596 0.958437 0.825532
P_10 0.750456 0.607612 0.570748 0.531894 0.466627 0.471940
P_10 0.479418 0.524147 0.563990 0.582055 0.684583 0.828259
P_10 0.878379 0.955458 1.105100 1.147745 1.219080 1.196293
P_10 1.312056 1.408326 1.391277 1.369094 1.453354 1.337871
P_10 1.277667 1.363148 1.156378 1.102396 1.076258 1.091813
P_10 1.101661 1.006718 1.023633 1.085331 1.051372 1.095897
P_10 1.165097 1.194839 1.162775 1.097592 1.161899 1.148001
P_10 1.169235 1.130183 1.023428 0.883137 0.866914 0.892820
P_10 0.804099 0.610778 0.547541 0.550821 0.480296 0.468774
P_10 0.508512 0.599883 0.515596 0.642075 0.729133 0.838568
P_10 0.874093 1.042421 1.046447 1.138088 1.279512 1.277482
P_10 1.241489 1.258119 1.235945 1.335763 1.322091 1.323890
P_10 1.319624 1.342809 1.167582 1.241059 1.335434 1.125479
P_10 1.124755 1.069844 1.087365 1.109560 1.153986 1.097028
P_10 1.182034 1.141377 1.125065 1.135061 1.129323 1.152539
P_10 1.079187 1.069438 0.974178 0.908871 0.839439 0.782807
P_10 0.772001 0.677577 0.647136 0.545173 0.532483 0.476245
P_10 0.499903 0.553905 0.572004 0.658598 0.755197 0.837978
P_10 0.954299 0.979720 1.028330 1.098121 1.261376 1.309168
P_10 1.281220 1.262161 1.372711 1.331722 1.317891 1.341828
P_10 1.414715 1.202390 1.181091 1.067101 1.226051 1.132054
P_10 1.104572 1.109141 1.098159 1.135437 1.128807 1.187744
P_10 1.131279 1.187498 1.110531 1.155618 1.184208 1.102304
P_10 1.188310 1.016902 1.047481 0.931556 0.833778 0.812940
P_10 0.731286 0.708636 0.610814 0.591441 0.498632 0.493937
P_10 0.506048 0.522102 0.556215 0.667599 0.800471 0.866433
P_10 1.027944 1.094634 1.304471 1.355380 1.515390 1.455302
P_10 1.654230 1.513660 1.595869 1.576516 1.531482 1.489219
P_10 1.510082 1.330740 1.344381 1.264265 1.250904 1.136924
P_10 1.248163 1.096772 1.143111 1.118244 1.229509 1.103574
P_10 1.132540 1.142931 1.107843 1.154416 1.117972 1.038407
P_10 1.101616 1.060714 0.995682 0.924241 0.922501 0.814255
P_10 0.816103 0.660608 0.679602 0.613070 0.595369 0.593741
P_10 0.473645 0.543997 0.521454 0.592478 0.603032 0.779680
P_10 0.808208 0.801300 0.934501 1.049738 1.004992 1.106883
P_10 1.218610 1.381703 1.278768 1.262769 1.421735 1.316365
P_10 1.148741 1.296489 1.288266 1.145845 1.188285 1.257537
P_10 1.145121 1.104225 1.168100 1.082237 1.197474 1.200146
P_10 1.129482 1.025218 1.158928 1.042999 1.109922 1.063785
P_10 0.970965 0.923131 0.890062 0.832000 0.806886 0.721352
P_10 0.734081 0.694057 0.701375 0.582528 0.577720 0.547269
P_10 0.577037 0.535418 0.531859 0.554598 0.553460 0.576412
P_10 0.626039 0.747793 0.723952 0.899403 0.775932 1.031868
P_10 1.127672 1.111373 1.141241 1.137445 1.207815 1.335229
P_10 1.321480 1.080964 1.174551 1.244918 1.161088 1.072137
P_10 1.075134 1.130559 1.043856 1.036104 1.017208 1.034732
P_10 1.160211 1.080464 1.093755 1.100468 1.131256 1.157976
P_10 1.004885 1.015223 1.049999 0.843862 0.890706 0.758159
P_10 0.667997 0.655802 0.592152 0.510363 0.502439 0.486412
P_10 0.481090 0.524096 0.509454 0.576608 0.637123 0.722853
P_10 0.769437 0.994122 1.026858 1.080285 1.317636 1.222357
P_10 1.414698 1.526314 1.448284 1.468621 1.387704 1.255665
P_10 1.309832 1.405832 1.248026 1.177662 1.152985 1.157532
P_10 1.002003 0.980375 1.095142 1.064203 1.036564 1.043949
P_10 1.056164 1.133603 1.132709 1.228392 1.146766 1.149339
P_10 1.118905 0.988187 0.988101 1.007873 0.902959 0.820990
P_10 0.734707 0.653243 0.648901 0.562418 0.473810 0.484351
P_10 0.486973 0.541175 0.559961 0.622575 0.721913 0.747614
P_10 0.870638 0.938381 1.126707 1.047169 1.141592 1.307412
P_10 1.300418 1.424164 1.496332 1.501268 1.417576 1.374872
P_10 1.377793 1.301075 1.195415 1.207004 1.094127 1.166144
P_10 1.106841 0.967285 1.065351 1.042177 1.018933 1.059037
P_10 1.154315 1.177588 1.145038 1.212397 1.195849 1.268216
P_10 1.225627 1.152532 0.963391 0.978106 0.917673 0.858073
P_10 0.746274 0.629898 0.578270 0.577572 0.520265 0.505171
P_10 0.488324 0.512028 0.601657 0.623511 0.720626 0.868641
P_10 0.922319 0.919474 0.939378 1.171683 1.290800 1.344905
P_10 1.343770 1.393591 1.323434 1.418110 1.421071 1.245576
P_10 1.281215 1.335447 1.314007 1.159114 1.320739 1.186904
P_10 1.220686 0.990171 1.200275 1.114311 1.061854 1.171308
P_10 1.197436 1.150452 1.265747 1.178717 1.152321 1.067643
P_10 1.235186 1.148085 1.047872 0.960462 0.877543 0.866192
P_10 0.744946 0.670035 0.597580 0.533789 0.464597 0.484235
P_10 0.546660 0.550480 0.595355 0.633956 0.779404 0.796017
P_10 0.932734 1.051028 1.135184 1.207262 1.264170 1.364723
P_10 1.466513 1.396922 1.373144 1.388635 1.344595 1.430021
P_10 1.315144 1.175709 1.137697 1.111662 1.176064 1.118322
P_10 1.064625 1.012210 1.170325 1.093885 1.187560 1.184018
P_10 1.104031 1.142933 1.164362 1.166150 1.108684 1.095131
P_10 1.214369 1.162274 1.091717 1.024084 0.975864 0.837611
P_10 0.777780 0.761349 0.638988 0.575367 0.532586 0.471341
P_10 0.559432 0.537183 0.555740 0.613722 0.739981 0.917481
P_10 1.078650 1.033756 1.328413 1.482595 1.522374 1.507434
P_10 1.376036 1.513319 1.653908 1.575858 1.413118 1.448448
P_10 1.357035 1.420504 1.282090 1.241137 1.219823 1.106512
P_10 1.114931 1.158794 1.215073 1.205372 1.203016 1.115502
P_10 1.279327 1.166938 1.082011 1.214744 1.098754 1.188278
P_10 1.070272 1.070226 0.903666 1.023764 0.938730 0.795912
P_10 0.817105 0.724951 0.732221 0.660602 0.604306 0.558515