; Filename: networks/Net1.inp
; WNTR: 0.1.6
; Created: 2019-04-09 13:10:38
[TITLE]
EPANET Example Network 1
A simple example of modeling chlorine decay. Both bulk and
wall reactions are included.

[JUNCTIONS]
;ID                      Elevation       Demand Pattern                 
 10                               710               0                            ;
 11                               710               0                            ;
 12                               700               0                            ;
 13                               695               0                            ;
 21                               700               0                            ;
 22                               695               0                            ;
 23                               690               0                            ;
 31                               700               0                            ;
 32                               710               0                            ;

[RESERVOIRS]
;ID                                   Head                  Pattern
 9                                800                            ;

[TANKS]
;ID                              Elevation           Init Level            Min Level            Max Level             Diameter           Min Volume Volume Curve        
 2                                850             120             100             150            50.5               0                        ;

[PIPES]
;ID                   Node1                Node2                              Length             Diameter            Roughness           Minor Loss               Status
 10                   10                   11                             10530              18             100               0                 Open   ;
 11                   11                   12                              5280              14             100               0                 Open   ;
 12                   12                   13                              5280              10             100               0                 Open   ;
 21                   21                   22                              5280              10             100               0                 Open   ;
 22                   22                   23                              5280              12             100               0                 Open   ;
 31                   31                   32                              5280               6             100               0                 Open   ;
 110                  2                    12                               200              18             100               0                 Open   ;
 111                  11                   21                              5280              10             100               0                 Open   ;
 112                  12                   22                              5280              12             100               0                 Open   ;
 113                  13                   23                              5280               8             100               0                 Open   ;
 121                  21                   31                              5280               8             100               0                 Open   ;
 122                  22                   32                              5280               6             100               0                 Open   ;

[PUMPS]
;ID                   Node1                Node2                Properties          
 9                    9                    10                   HEAD     1                      ;

[VALVES]
;ID                   Node1                Node2                            Diameter Type              Setting           Minor Loss

[TAGS]
;type      name       tag       

[DEMANDS]
;ID        Demand     Pattern   
10         0.0        P_10      
11         150.0      P_11      
12         150.0      P_12      
13         100.0      P_13      
21         150.0      P_21      
22         200.0      P_22      
23         150.0      P_23      
31         100.0      P_31      
32         100.0      P_32      

[STATUS]
;ID        Setting   
[PATTERNS]
;ID        Multipliers

1 1.000000 1.200000 1.400000 1.600000 1.400000 1.200000
1 1.000000 0.800000 0.600000 0.400000 0.600000 0.800000

P_10 0.617568 0.583953 0.447338 0.454646 0.383624 0.399564
P_10 0.365847 0.380035 0.447400 0.464130 0.578291 0.710807
P_10 0.763184 0.840738 0.948345 0.976369 0.995529 1.103066
P_10 1.226826 1.253817 1.259810 1.393683 1.273916 1.067016
P_10 1.088236 1.148647 1.022908 0.921209 1.024207 0.893642
P_10 0.923061 0.913800 0.939394 0.851497 0.835758 0.966345
P_10 0.968691 0.933354 1.096064 1.073235 1.097517 1.074791
P_10 1.074053 1.036806 1.021235 0.915600 0.809182 0.783746
P_10 0.671433 0.608516 0.515512 0.431302 0.386483 0.375951
P_10 0.360345 0.368554 0.418536 0.516605 0.567900 0.617711
P_10 0.766497 0.814671 0.878340 1.005184 1.063059 1.262240
P_10 1.191432 1.176735 1.244936 1.210115 1.162262 1.119879
P_10 1.180546 1.078002 0.977373 1.034478 0.984386 0.953840
P_10 0.874412 0.852774 0.923067 0.983270 0.877354 1.025325
P_10 1.022355 1.081374 1.062215 1.226817 1.161022 1.123297
P_10 1.137668 1.122991 0.953691 0.887363 0.878658 0.782742
P_10 0.664490 0.581540 0.466083 0.428272 0.403834 0.375853
P_10 0.359235 0.442015 0.428318 0.507931 0.565989 0.703456
P_10 0.754774 0.843531 1.006552 0.941790 1.081974 1.125991
P_10 1.130205 1.159486 1.182828 1.250084 1.169594 1.047420
P_10 1.100828 1.145510 1.100949 1.017117 1.056758 1.004539
P_10 0.999840 0.944052 0.874973 0.961947 1.026894 1.064282
P_10 1.034027 1.014885 1.100418 0.980775 1.077420 1.084830
P_10 1.115161 0.957240 0.964548 0.938432 0.899058 0.738294
P_10 0.657986 0.576920 0.447563 0.449837 0.384352 0.357842
P_10 0.348303 0.374192 0.409990 0.506770 0.608171 0.690837
P_10 0.720701 0.935074 0.884699 0.973715 1.111640 1.139047
P_10 1.177057 1.113993 1.187537 1.169950 1.142332 1.132355
P_10 1.026345 1.051080 1.041554 0.945299 0.971180 0.932484
P_10 0.917645 0.894001 0.952457 0.944526 0.993906 1.051502
P_10 1.036255 0.997940 1.079747 1.047015 1.149777 1.096244
P_10 0.978313 1.021745 0.975917 0.896214 0.752344 0.733418
P_10 0.629819 0.604109 0.504610 0.465788 0.396013 0.400113
P_10 0.434742 0.435063 0.493049 0.587592 0.667214 0.711477
P_10 0.851732 0.972529 1.117369 1.144942 1.154990 1.326098
P_10 1.457343 1.299974 1.325606 1.217297 1.354331 1.367984
P_10 1.086388 1.170618 1.168806 1.056921 1.051797 1.070179
P_10 1.007449 0.956344 0.931690 1.126167 0.975152 1.037658
P_10 1.053652 1.100590 1.059266 1.107135 1.121082 0.981486
P_10 0.949186 1.046522 0.934967 0.817448 0.810078 0.737624
P_10 0.689525 0.727438 0.549552 0.523943 0.468251 0.484703
P_10 0.402244 0.417094 0.425069 0.431545 0.465726 0.540533
P_10 0.638270 0.715071 0.809937 0.852257 0.879089 1.034887
P_10 1.010673 1.120405 1.198638 1.279514 1.057437 1.173182
P_10 1.212269 1.185071 1.099165 1.096751 1.027144 1.031504
P_10 1.085208 0.958439 0.918849 1.044659 1.055064 1.072098
P_10 0.972514 1.016716 1.025253 0.987236 1.055553 0.922057
P_10 0.980165 0.905388 0.855607 0.796995 0.761388 0.693216
P_10 0.648997 0.587008 0.552406 0.506252 0.451053 0.463551
P_10 0.409855 0.371145 0.421110 0.387892 0.457087 0.465795
P_10 0.473241 0.582258 0.640220 0.736044 0.773442 0.800175
P_10 0.941466 1.010683 1.009063 1.034552 1.067860 1.011426
P_10 1.062770 1.173275 1.111645 1.055444 0.996388 0.882643
P_10 0.909386 0.895903 1.023913 0.963652 0.925942 1.049383
P_10 0.950937 1.078011 1.024132 1.044503 1.105585 0.987809
P_10 0.920727 0.877951 0.818574 0.838851 0.721332 0.688571
P_10 0.612794 0.554526 0.462907 0.430777 0.356614 0.330063
P_10 0.386687 0.390744 0.449777 0.478519 0.558194 0.593451
P_10 0.707887 0.888590 0.867041 1.059424 1.092379 1.037075
P_10 1.246160 1.291771 1.292252 1.233222 1.314093 1.221984
P_10 1.308462 1.139950 1.064886 1.079069 0.919322 0.871930
P_10 0.927539 0.946543 0.873610 0.774911 0.898877 0.962547
P_10 0.937945 1.008152 1.002341 1.077480 1.083338 1.117734
P_10 1.132992 1.014164 0.954074 0.943735 0.863826 0.729938
P_10 0.668232 0.528876 0.524127 0.413757 0.433406 0.352132
P_10 0.405054 0.385337 0.404666 0.488440 0.579084 0.683628
P_10 0.724944 0.844694 0.900526 0.949789 1.078542 1.078377
P_10 1.116532 1.093666 1.304892 1.219384 1.101326 1.059262
P_10 1.165077 1.113433 0.961418 1.027055 1.011316 0.862188
P_10 0.991741 0.927298 0.855604 0.966057 0.947026 0.967262
P_10 1.044365 1.172683 1.144793 1.032586 1.184143 1.096070
P_10 1.112752 1.088707 0.914094 0.960508 0.957037 0.782548
P_10 0.638893 0.567248 0.464012 0.409207 0.381612 0.384463
P_10 0.398634 0.410874 0.435657 0.526729 0.566400 0.708966
P_10 0.719489 0.806721 0.933462 1.049436 1.117291 1.178494
P_10 1.129253 1.169038 1.195591 1.234187 1.213617 1.218429
P_10 1.144203 1.058672 1.133919 1.046030 1.033581 0.951304
P_10 1.005226 0.977905 0.996927 0.977595 1.088606 0.966480
P_10 1.099231 1.060398 1.051503 1.189750 1.159060 1.062113
P_10 1.068433 1.086420 0.928307 0.973484 0.836960 0.696472
P_10 0.614750 0.595978 0.509709 0.381740 0.431632 0.393413
P_10 0.399540 0.397633 0.443096 0.462932 0.624881 0.667727
P_10 0.770162 0.811643 0.904836 1.084556 1.184301 1.194986
P_10 1.198457 1.209475 1.154087 1.135984 1.067885 1.179362
P_10 1.141727 1.102404 1.057384 0.953800 0.991918 0.979647
P_10 0.841329 1.033804 0.979748 1.091564 1.065643 1.058808
P_10 1.118114 1.107623 1.090461 1.141761 1.192970 1.127093
P_10 1.067827 1.021645 1.030382 0.904267 0.863786 0.768969
P_10 0.716991 0.590130 0.536858 0.450936 0.450416 0.412240
P_10 0.419134 0.422119 0.509292 0.565652 0.647178 0.767599
P_10 0.855548 1.015391 1.173303 1.205372 1.304254 1.268936
P_10 1.404994 1.409609 1.296718 1.254733 1.315293 1.302715
P_10 1.217213 1.202178 1.168721 1.160925 1.127881 1.020339
P_10 1.084381 1.056239 1.073075 1.045444 1.060453 1.160079
P_10 1.054235 1.142383 1.098633 1.102824 1.122151 1.054385
P_10 0.966894 1.034129 0.952994 0.928892 0.863190 0.843880
P_10 0.712774 0.683513 0.578967 0.548954 0.474829 0.427595
P_10 0.429407 0.424342 0.438695 0.481464 0.511727 0.582088
P_10 0.583037 0.716429 0.719584 0.864990 0.946029 1.025483
P_10 1.071654 1.207777 1.076589 1.129518 1.223268 1.236747
P_10 1.110482 1.125525 1.053187 1.001433 1.034588 1.072038
P_10 0.972524 1.055365 1.167230 0.993830 1.048380 1.048793
P_10 1.100728 1.007324 1.077783 1.034684 1.003860 1.005368
P_10 0.905015 0.895008 0.770710 0.800492 0.628257 0.717866
P_10 0.656134 0.621442 0.570342 0.562159 0.494264 0.449268
P_10 0.458776 0.393756 0.434530 0.385754 0.418627 0.480988
P_10 0.529707 0.625993 0.634538 0.700406 0.814841 0.932979
P_10 0.932149 0.986166 0.975328 1.114032 1.018479 1.087516
P_10 1.049573 1.053015 1.104730 0.989824 1.056065 1.068400
P_10 0.941805 1.037705 0.906279 0.966754 1.018355 0.959457
P_10 0.926106 0.909732 1.091339 1.116167 1.097414 1.030036
P_10 0.996132 1.063401 0.907945 0.796389 0.808659 0.686597
P_10 0.646195 0.502634 0.496339 0.415537 0.397805 0.382347
P_10 0.370991 0.426488 0.460221 0.484075 0.529516 0.644410
P_10 0.747774 0.810685 0.958561 1.014591 1.113820 1.244398
P_10 1.198277 1.371861 1.358508 1.290011 1.399984 1.222377
P_10 1.268090 1.231171 1.046247 1.036477 1.005367 0.954341
P_10 0.847461 0.864500 0.922880 0.886141 0.930466 1.013198
P_10 1.009963 1.002035 1.056515 0.980428 0.996150 1.150991
P_10 1.102444 1.102489 1.064499 0.856443 0.875865 0.746782
P_10 0.714786 0.553653 0.534285 0.446021 0.436410 0.384479
P_10 0.394681 0.418297 0.438448 0.543157 0.560390 0.716392
P_10 0.807361 0.831498 0.813829 1.049916 1.137914 1.188412
P_10 1.277831 1.241089 1.281998 1.138636 1.309512 1.209198
P_10 1.165696 1.075300 0.953929 0.990726 1.062680 0.958273
P_10 0.930837 0.932163 0.967735 0.951432 0.980308 1.079758
P_10 1.119804 1.111374 1.098990 1.131347 1.284584 1.091766
P_10 1.165038 1.064734 1.025497 0.903150 0.784547 0.720484
P_10 0.670569 0.576332 0.505746 0.432971 0.389706 0.356049
P_10 0.372956 0.419053 0.497750 0.572514 0.607239 0.685239
P_10 0.692829 0.915766 0.999161 1.039803 1.161924 1.150408
P_10 1.258687 1.201339 1.212543 1.199699 1.234297 1.280344
P_10 1.219337 1.139073 1.181401 1.090170 0.970450 1.026759
P_10 0.976246 0.989178 0.987833 1.017462 1.005340 0.950202
P_10 1.055070 1.033052 1.151063 1.081602 1.109196 1.193374
P_10 1.115431 1.072381 1.006033 0.966455 0.881122 0.785388
P_10 0.643206 0.585621 0.493832 0.461347 0.413652 0.424018
P_10 0.382591 0.410972 0.436718 0.549984 0.592530 0.639987
P_10 0.763195 0.932085 0.999543 0.981122 1.157648 1.174991
P_10 1.254150 1.219171 1.244093 1.309594 1.151483 1.135574
P_10 1.088917 0.971948 0.952886 0.996433 0.914047 0.930855
P_10 0.946520 0.916774 1.024975 0.946044 1.085245 1.112384
P_10 1.124780 1.138005 1.130410 1.127440 1.133352 1.161297
P_10 1.101975 1.154870 1.057680 0.871145 0.833133 0.801477
P_10 0.754609 0.635667 0.561423 0.465433 0.447574 0.412056
P_10 0.416149 0.496226 0.463450 0.513700 0.698094 0.764805
P_10 0.785656 1.008617 1.121623 1.180794 1.309970 1.403326
P_10 1.324159 1.352890 1.507475 1.303643 1.314519 1.325235
P_10 1.207666 1.065676 1.117762 1.131772 1.159464 1.032942
P_10 1.044547 1.101836 1.026972 1.074696 1.165576 1.089932
P_10 1.074124 1.240321 1.008675 1.191971 1.152910 1.129539
P_10 1.021312 1.038086 0.981751 0.969188 0.856156 0.789363
P_10 0.695883 0.706246 0.562517 0.492454 0.559431 0.481593
P_10 0.412774 0.430743 0.457111 0.506866 0.464208 0.613085
P_10 0.639868 0.726163 0.783409 0.898641 0.918988 1.044397
P_10 1.139954 1.051274 1.211098 1.075368 1.164849 1.201633
P_10 1.301594 1.216427 1.046039 1.000355 1.050834 1.126906
P_10 1.165625 1.127173 1.004624 1.074461 1.102936 0.945469
P_10 1.118925 1.092473 1.084414 1.127260 1.035070 1.064285
P_10 0.986740 0.997900 0.908958 0.790968 0.741417 0.688646
P_10 0.637936 0.568325 0.554460 0.522333 0.471802 0.462383
P_10 0.465503 0.412420 0.410793 0.446002 0.478680 0.521302
P_10 0.524321 0.618373 0.630023 0.753753 0.782262 0.859544
P_10 0.899048 0.983082 1.034907 0.965160 1.045008 1.130497
P_10 1.157524 0.987767 1.070092 1.113730 0.955254 1.007831
P_10 0.913846 0.968877 0.934384 0.936776 0.884244 0.997183
P_10 1.015280 1.133352 1.044786 1.099253 1.049879 1.094880
P_10 1.026786 0.939516 0.919392 0.871701 0.797334 0.688707
P_10 0.595505 0.574161 0.535915 0.475433 0.408534 0.391477
P_10 0.363498 0.403284 0.420644 0.520458 0.575977 0.658394
P_10 0.762215 0.889870 0.856704 0.933986 1.134645 1.185387
P_10 1.291354 1.275761 1.238664 1.271372 1.364100 1.324762
P_10 1.332152 1.196418 1.119625 1.038637 1.107815 1.011362
P_10 1.064559 0.882949 0.958147 0.932824 0.884150 0.930382
P_10 1.103352 1.070423 1.141431 1.150385 1.224482 1.107536
P_10 1.173808 1.044031 1.009329 0.918659 0.858087 0.779153
P_10 0.699716 0.647989 0.509489 0.496814 0.449923 0.391114
P_10 0.420819 0.419371 0.464283 0.506470 0.599609 0.662987
P_10 0.757046 0.842818 0.959254 0.935605 1.121276 1.253249
P_10 1.277783 1.268238 1.355757 1.295412 1.353095 1.019510
P_10 1.133701 1.193086 1.049729 0.993163 0.998341 0.831287
P_10 0.923436 1.056811 1.003104 1.004357 0.988714 1.057712
P_10 1.065632 1.070424 1.238603 1.184153 1.165337 1.155361
P_10 1.090953 1.040220 1.023126 0.992724 0.889440 0.742915
P_10 0.652869 0.615677 0.514559 0.459448 0.409651 0.399535
P_10 0.409383 0.427549 0.491241 0.523323 0.653819 0.621757
P_10 0.808406 0.932749 0.995917 1.011455 1.096339 1.189546
P_10 1.289113 1.281745 1.304415 1.312679 1.324457 1.281585
P_10 1.155621 1.302507 1.054292 1.100728 1.036112 1.008126
P_10 1.021603 0.983989 0.990530 1.069782 1.146507 0.984536
P_10 1.132499 1.144080 1.224926 1.164976 1.153977 1.076389
P_10 1.137745 1.148682 1.044653 0.974790 0.843206 0.776782
P_10 0.642926 0.563132 0.536129 0.522706 0.416006 0.401504
P_10 0.408436 0.435078 0.460451 0.518170 0.640773 0.691689
P_10 0.850595 0.838250 1.020340 0.991876 1.192609 1.136002
P_10 1.206080 1.193837 1.191975 1.250853 1.247398 1.111444
P_10 1.094624 1.103371 1.174459 1.108031 0.931755 0.943282
P_10 1.066104 1.038224 1.032640 1.070701 1.117726 1.004074
P_10 1.115493 1.207130 1.191791 1.230415 1.168640 1.163444
P_10 1.111204 1.067204 1.102324 0.966048 0.845814 0.814545
P_10 0.689937 0.668019 0.578006 0.498373 0.437993 0.453284
P_10 0.440962 0.475072 0.524147 0.583872 0.656804 0.811024
P_10 0.956653 0.976312 1.194250 1.252897 1.372948 1.348846
P_10 1.484776 1.308738 1.530845 1.481680 1.324593 1.300563
P_10 1.205131 1.230906 1.254558 1.080156 1.146607 1.138232
P_10 0.972363 1.000319 1.137821 1.010877 1.018343 1.124502
P_10 1.087044 1.173859 1.099080 1.165448 1.029455 1.087467
P_10 1.032320 0.998300 1.055329 0.946821 0.882350 0.859434
P_10 0.780526 0.652608 0.631718 0.531859 0.522008 0.512229
P_10 0.425961 0.443653 0.471194 0.527552 0.526359 0.598916
P_10 0.651261 0.736854 0.871531 0.916265 0.983616 1.103135
P_10 1.051627 1.181688 1.259970 1.209185 1.268847 1.309920
P_10 1.197367 1.190929 1.196334 1.080402 1.177264 0.952560
P_10 1.101208 1.141415 1.091241 1.064055 1.187699 1.133774
P_10 1.189568 1.155968 1.108802 1.090069 1.043258 1.054380
P_10 1.044201 0.877176 0.892444 0.827343 0.782878 0.816885
P_10 0.630600 0.604743 0.556758 0.567932 0.569859 0.441875
P_10 0.415415 0.444927 0.392133 0.437180 0.460902 0.549205
P_10 0.575277 0.595050 0.664702 0.736535 0.783994 0.806539
P_10 0.974024 1.047531 1.027520 1.050974 1.194862 1.246523
P_10 1.177358 1.158519 1.103408 1.107324 1.017773 1.059930
P_10 0.973430 1.081598 0.941621 0.988632 0.939443 0.900746
P_10 1.086084 1.082661 1.062748 1.076354 1.094101 1.024125
P_10 1.162874 1.136550 0.914991 0.940423 0.834672 0.646913
P_10 0.689598 0.576001 0.511876 0.460276 0.391661 0.393502
P_10 0.400990 0.436536 0.434554 0.491200 0.613014 0.653717
P_10 0.763481 0.879988 0.889362 1.147931 1.122488 1.348366
P_10 1.279383 1.470682 1.435707 1.305684 1.398868 1.373168
P_10 1.355344 1.229204 1.073574 1.104191 1.070518 0.944312
P_10 0.965261 0.905162 0.882433 0.974839 0.954211 1.004073
P_10 1.037091 1.165528 1.217531 1.209969 1.199723 1.196088
P_10 1.100628 1.199065 1.072862 0.988064 0.862458 0.828856
P_10 0.716493 0.633281 0.585831 0.479557 0.399192 0.406915
P_10 0.421746 0.432050 0.460421 0.508344 0.599195 0.742222
P_10 0.798584 0.848096 0.933682 0.960940 1.138909 1.225856
P_10 1.348552 1.235142 1.282958 1.352978 1.374630 1.308521
P_10 1.180955 1.209948 1.131810 1.098380 1.016725 0.918357
P_10 0.987391 1.020970 0.938157 1.022541 1.058334 0.969641
P_10 1.116185 1.171915 1.220449 1.268654 1.248908 1.324531
P_10 1.252800 1.132916 1.009970 0.899424 0.881352 0.809397
P_10 0.665246 0.604891 0.493096 0.474896 0.381002 0.373241
P_10 0.423042 0.470348 0.464712 0.568477 0.559652 0.707306
P_10 0.860999 0.890434 1.092092 1.059017 1.113694 1.276269
P_10 1.269861 1.360110 1.293777 1.350165 1.417902 1.258665
P_10 1.092863 1.153687 1.178453 1.081606 1.095612 1.073319
P_10 1.060645 1.076010 0.975419 1.073737 1.037610 1.117251
P_10 1.111330 1.135777 1.127667 1.209829 1.277977 1.146077
P_10 1.139543 1.149809 1.055722 0.940364 0.872897 0.815903
P_10 0.661216 0.546677 0.537748 0.451658 0.385203 0.365224
P_10 0.343425 0.437303 0.420997 0.580673 0.690206 0.785413
P_10 0.896445 0.996459 1.032463 1.057522 1.160599 1.244307
P_10 1.294601 1.372718 1.311026 1.273585 1.174425 1.144973
P_10 1.161074 1.107284 0.946675 1.060210 1.138793 1.075293
P_10 1.032737 0.992811 1.032358 1.127182 1.021850 1.022510
P_10 1.133601 1.205313 1.171671 1.144459 1.333446 1.290018
P_10 1.075125 1.075939 1.043280 1.049310 0.961344 0.842662
P_10 0.768661 0.658215 0.557996 0.491167 0.425888 0.445149
P_10 0.451447 0.430459 0.505937 0.667719 0.716357 0.810636
P_10 0.950977 1.074201 1.105140 1.287513 1.326609 1.288565
P_10 1.348460 1.445877 1.491081 1.515076 1.425387 1.339838
P_10 1.245527 1.209551 1.296033 1.222863 1.127871 1.101877
P_10 1.209190 1.093652 1.206401 1.160273 1.095889 1.098394
P_10 1.097464 1.064219 1.149787 1.166257 1.169172 1.162640
P_10 1.116389 1.052108 0.977664 0.906950 0.889782 0.812227
P_10 0.826399 0.671603 0.652914 0.572465 0.568258 0.495497
P_10 0.456519 0.442919 0.466173 0.455556 0.557921 0.595690
P_10 0.663044 0.813441 0.891511 0.921943 1.037058 1.090579
P_10 1.097315 1.265764 1.182300 1.192992 1.301447 1.194124
P_10 1.250970 1.109243 1.164142 1.238779 1.189832 1.148553
P_10 1.105044 1.100579 1.182169 1.053747 1.073026 1.202568
P_10 1.101092 1.166404 1.093769 1.134894 1.149980 1.048989
P_10 0.985074 1.027342 0.922089 0.842842 0.747526 0.787102
P_10 0.715275 0.706028 0.604981 0.552157 0.520509 0.475376
P_10 0.439183 0.406812 0.438311 0.436728 0.477394 0.509574
P_10 0.463191 0.628029 0.645068 0.748037 0.804996 0.903888
P_10 0.953250 1.036856 1.058031 1.044171 1.212881 1.099781
P_10 1.108714 1.182261 0.956146 1.071815 0.985224 1.025909
P_10 1.083572 1.036781 0.929410 1.034748 1.005349 1.067687
P_10 1.024717 1.114073 1.098032 1.084690 1.099531 1.072434
P_10 1.079718 1.071869 0.962961 0.920581 0.816842 0.685467
P_10 0.724835 0.605560 0.532044 0.486771 0.445627 0.407984
P_10 0.408383 0.435762 0.460749 0.539003 0.598289 0.765369
P_10 0.719336 0.942430 1.005170 1.197316 1.272637 1.266416
P_10 1.284034 1.385152 1.462141 1.367856 1.464475 1.348279
P_10 1.329413 1.300658 1.155954 1.123609 1.123069 1.054171
P_10 0.934406 0.917036 0.975291 0.970246 0.980115 1.120521
P_10 1.075946 1.120221 1.186510 1.213335 1.209822 1.218973
P_10 1.169746 1.011381 1.041160 0.939618 0.860169 0.821060
P_10 0.751708 0.604974 0.601583 0.467502 0.443896 0.433889
P_10 0.423807 0.456247 0.448406 0.564066 0.574470 0.721299
P_10 0.824144 0.883102 0.969182 1.085197 1.142482 1.220322
P_10 1.339335 1.412706 1.429238 1.295287 1.306540 1.370835
P_10 1.156853 1.121477 1.244616 1.093881 1.136161 1.082030
P_10 1.027977 0.880822 0.988277 0.992315 1.045921 1.088947
P_10 1.142587 1.103637 1.246825 1.313665 1.148403 1.327409
P_10 1.132694 1.125992 1.054557 0.989198 0.933858 0.837282
P_10 0.718378 0.661959 0.544366 0.510133 0.436244 0.387783
P_10 0.419073 0.435787 0.510482 0.540401 0.626926 0.730624
P_10 0.786488 0.872268 1.054505 1.024795 1.181056 1.264562
P_10 1.261748 1.447858 1.360071 1.320116 1.345950 1.317146
P_10 1.302112 1.248530 1.178499 1.266430 1.111080 1.022502
P_10 1.086671 1.115358 0.981783 1.065808 1.090139 1.098369
P_10 1.149720 1.164964 1.178388 1.119565 1.198892 1.211595
P_10 1.083894 1.132880 0.992539 0.987937 0.918878 0.794793
P_10 0.722780 0.671208 0.565034 0.459275 0.429149 0.457958
P_10 0.402361 0.417479 0.486697 0.570822 0.650359 0.717788
P_10 0.935807 0.939451 1.051214 1.084997 1.159995 1.330592
P_10 1.326645 1.377510 1.282711 1.309217 1.302829 1.237131
P_10 1.273117 1.133567 1.065176 1.138619 1.091388 1.011420
P_10 1.127416 1.037847 1.011598 1.079958 1.150698 1.082771
P_10 1.058425 1.229799 1.192613 1.126357 1.251268 1.117241
P_10 1.131578 1.198920 1.080384 1.027993 0.961523 0.791361
P_10 0.763626 0.627185 0.610493 0.542066 0.462767 0.427496
P_10 0.420002 0.479585 0.540972 0.612421 0.701524 0.779218
P_10 0.938983 1.209546 1.270440 1.278434 1.247067 1.440561
P_10 1.442440 1.559367 1.658859 1.472867 1.459828 1.219126
P_10 1.274154 1.333925 1.253804 1.220016 1.163463 1.118667
P_10 1.123789 1.146445 1.131126 1.222226 1.059088 1.219064
P_10 1.190388 1.154100 1.134235 1.228381 1.154761 1.130099
P_10 1.106148 1.142871 1.026776 0.960260 0.951335 0.885082
P_10 0.765153 0.703444 0.612234 0.601279 0.495183 0.493348
P_10 0.512543 0.490587 0.462909 0.523310 0.570307 0.609122
P_10 0.687760 0.649953 0.797847 0.962825 1.161478 1.069030
P_10 1.319103 1.176064 1.168788 1.246392 1.392726 1.387206
P_10 1.266133 1.151626 1.220940 1.121041 1.096430 1.123760
P_10 1.123571 1.233805 1.153420 1.168707 1.084517 1.059412
P_10 1.158560 1.268010 1.277464 1.233662 1.147211 1.099389
P_10 1.022868 0.886549 0.852975 0.840960 0.806458 0.745264
P_10 0.734695 0.642754 0.590704 0.529248 0.485007 0.485236
P_10 0.471219 0.461127 0.452079 0.487841 0.496861 0.518293
P_10 0.534351 0.653441 0.665384 0.808631 0.897753 0.905061
P_10 1.031248 1.080774 1.052763 1.163700 1.104540 1.213325
P_10 1.084611 1.181807 1.209927 1.144654 1.085934 1.056251
P_10 1.046892 1.042761 1.074213 1.064767 0.984728 0.999354
P_10 1.123227 1.078601 1.033639 1.159439 1.217614 1.094951
P_10 1.145636 1.115095 0.947602 0.884801 0.899836 0.703269
P_10 0.682851 0.607400 0.579452 0.452208 0.450437 0.426948
P_10 0.413560 0.415747 0.499973 0.589078 0.628985 0.670652
P_10 0.836441 0.889807 1.076786 1.119408 1.186348 1.362182
P_10 1.373065 1.348639 1.463670 1.642904 1.469347 1.408198
P_10 1.343643 1.319497 1.246497 1.187038 1.123092 1.026483
P_10 0.989611 0.959485 0.986000 0.954410 1.079668 1.125329
P_10 1.098983 1.138379 1.236173 1.266028 1.200450 1.209267
P_10 1.180602 1.181488 1.019225 1.003557 0.914601 0.871975
P_10 0.740507 0.672803 0.570281 0.522896 0.450738 0.416351
P_10 0.411923 0.425537 0.467079 0.590716 0.621057 0.722150
P_10 0.808526 0.972648 0.988619 1.135674 1.174115 1.284974
P_10 1.343624 1.394752 1.361029 1.366408 1.314177 1.388791
P_10 1.257554 1.177624 1.170541 1.049221 1.204014 0.960003
P_10 1.049967 1.075966 1.058704 1.028655 1.111771 1.118696
P_10 1.171157 1.118193 1.348926 1.213833 1.252499 1.204945
P_10 1.350549 1.280585 1.191734 0.938412 0.948522 0.794693
P_10 0.723277 0.622123 0.558891 0.522933 0.428684 0.415041
P_10 0.417430 0.449885 0.474940 0.604545 0.688496 0.746161
P_10 0.825344 0.942499 1.038987 1.217683 1.220915 1.336634
P_10 1.330899 1.377901 1.251575 1.321318 1.409227 1.275428
P_10 1.322503 1.282999 1.210269 1.190928 1.070298 1.227268
P_10 1.110687 1.074382 1.003719 1.117931 1.154586 1.069280
P_10 1.099047 1.118343 1.243774 1.148426 1.424031 1.215602
P_10 1.257885 1.220085 1.117015 0.942882 0.945028 0.864451
P_10 0.694091 0.670808 0.536295 0.490338 0.484310 0.434997
P_10 0.437002 0.441389 0.454786 0.576062 0.684113 0.771561
P_10 0.923030 1.029863 1.151816 1.259306 1.156880 1.386521
P_10 1.408579 1.290742 1.329691 1.281224 1.366360 1.277468
P_10 1.254091 1.158961 1.178249 1.246729 1.098133 1.038050
P_10 1.085537 1.149121 1.082606 1.131063 1.183920 1.192091
P_10 1.159796 1.193852 1.209300 1.194777 1.289312 1.322723
P_10 1.218562 1.191477 1.047234 1.087764 0.973343 0.829408
P_10 0.680121 0.647368 0.612803 0.600596 0.437708 0.448238
P_10 0.473809 0.463575 0.584257 0.585326 0.738037 0.734334
P_10 0.997875 1.117669 1.266341 1.180492 1.573172 1.501675
P_10 1.651878 1.477799 1.474315 1.610339 1.432413 1.336533
P_10 1.370028 1.298387 1.318283 1.319415 1.250382 1.294656
P_10 1.040426 1.097155 1.226457 1.180445 1.143820 1.337214
P_10 1.088521 1.156250 1.196655 1.135775 1.170050 1.166780
P_10 1.112313 1.104178 1.008684 1.030139 0.953349 0.848630
P_10 0.784000 0.712598 0.690319 0.586589 0.552317 0.510653
P_10 0.450511 0.465387 0.478674 0.499728 0.608225 0.614156
P_10 0.747100 0.734110 0.907631 0.958397 1.141452 1.124891
P_10 1.197208 1.389022 1.245501 1.321644 1.284358 1.393817
P_10 1.307708 1.195061 1.132632 1.200822 1.234737 1.130662
P_10 1.234788 1.209109 1.237942 1.132627 1.141540 1.285611
P_10 1.108170 1.169155 1.046829 1.200847 1.039997 1.221408
P_10 1.088942 1.030554 0.920839 0.827757 0.893495 0.749373
P_10 0.727941 0.683021 0.655177 0.585658 0.533330 0.553872
P_10 0.508539 0.442731 0.478457 0.434357 0.499724 0.526817
P_10 0.620085 0.624475 0.767563 0.795280 0.905450 0.932630
P_10 0.990101 1.102709 1.143482 1.212867 1.166552 1.123962
P_10 1.137439 1.199751 1.135174 1.073403 1.173943 1.031849
P_10 1.028248 1.070609 0.972975 1.040343 1.096656 1.178167
P_10 1.070376 1.215512 1.090376 1.169224 1.130941 1.173349
P_10 1.144039 1.032891 1.022786 0.869225 0.910894 0.832834
P_10 0.651539 0.636765 0.538987 0.465310 0.426699 0.438911
P_10 0.409222 0.389795 0.434907 0.558227 0.694403 0.771503
P_10 0.822203 0.875966 1.094491 1.143302 1.255702 1.354162
P_10 1.466039 1.441796 1.478079 1.461063 1.505510 1.502910
P_10 1.294186 1.156776 1.318790 1.184645 1.094725 1.017224
P_10 1.031844 0.997748 0.961435 1.006868 1.099231 1.074056
P_10 1.221529 1.272067 1.284294 1.301691 1.309163 1.176477
P_10 1.224677 1.178286 1.065145 1.032818 1.029708 0.847694
P_10 0.745664 0.634741 0.508841 0.523226 0.465438 0.406864
P_10 0.475107 0.470322 0.536916 0.546350 0.614581 0.685590
P_10 0.845902 0.946588 1.061801 1.147991 1.277826 1.251024
P_10 1.328655 1.378468 1.509785 1.232793 1.312506 1.288358
P_10 1.323914 1.187774 1.242270 1.048609 0.995378 1.083449
P_10 1.053384 1.043911 0.958831 1.162054 1.119329 1.156531
P_10 1.099615 1.241481 1.353562 1.240785 1.312171 1.339836
P_10 1.254966 1.228860 1.089944 1.011619 0.938729 0.904356
P_10 0.747454 0.658682 0.524878 0.513567 0.452721 0.437643
P_10 0.407376 0.472219 0.527757 0.578243 0.667838 0.741426
P_10 0.902725 0.950066 1.023670 1.084267 1.388661 1.312496
P_10 1.428941 1.406110 1.399894 1.361652 1.440423 1.284151
P_10 1.292958 1.355914 1.262175 1.323715 1.100587 1.199462
P_10 1.162024 1.197315 1.203736 1.097178 1.140474 1.254900
P_10 1.106117 1.256913 1.148014 1.202114 1.194486 1.344767
P_10 1.299640 1.191101 1.073422 1.081248 0.996369 0.842298
P_10 0.804995 0.712650 0.549564 0.493212 0.460984 0.461075
P_10 0.497314 0.466351 0.474792 0.589531 0.581945 0.795706
P_10 0.914658 0.938748 1.115916 1.239654 1.220021 1.330824
P_10 1.242131 1.435532 1.320791 1.281457 1.267411 1.268826
P_10 1.300583 1.197133 1.100926 1.063344 1.182619 1.080048
P_10 1.063656 1.084366 1.037219 1.176485 1.143577 1.176803
P_10 1.232431 1.352301 1.343954 1.238286 1.399974 1.227997
P_10 1.230917 1.181534 1.210749 1.026099 0.946543 0.885944
P_10 0.804334 0.699889 0.608753 0.570444 0.472147 0.461440
P_10 0.440415 0.544431 0.516677 0.649870 0.717626 0.879289
P_10 1.018784 1.071509 1.146004 1.319236 1.384275 1.467042
P_10 1.524309 1.537417 1.582149 1.507017 1.490850 1.435963
P_10 1.441529 1.308274 1.274968 1.273220 1.170322 1.148560
P_10 1.180482 1.140461 1.231320 1.204515 1.168761 1.086114
P_10 1.175031 1.153049 1.304335 1.271746 1.146952 1.268680
P_10 1.191995 1.136146 1.088427 1.039417 0.928864 0.890801
P_10 0.850962 0.743290 0.712504 0.639383 0.546772 0.525177