; Filename: networks/Net1.inp
; WNTR: 0.1.6
; Created: 2019-04-09 13:28:42
[TITLE]
EPANET Example Network 1
A simple example of modeling chlorine decay. Both bulk and
wall reactions are included.

[JUNCTIONS]
;ID                      Elevation       Demand Pattern                 
 10                               710               0                            ;
 11                               710               0                            ;
 12                               700               0                            ;
 13                               695               0                            ;
 21                               700               0                            ;
 22                               695               0                            ;
 23                               690               0                            ;
 31                               700               0                            ;
 32                               710               0                            ;

[RESERVOIRS]
;ID                                   Head                  Pattern
 9                                800                            ;

[TANKS]
;ID                              Elevation           Init Level            Min Level            Max Level             Diameter           Min Volume Volume Curve        
 2                                850             120             100             150            50.5               0                        ;

[PIPES]
;ID                   Node1                Node2                              Length             Diameter            Roughness           Minor Loss               Status
 10                   10                   11                             10530              18             100               0                 Open   ;
 11                   11                   12                              5280              14             100               0                 Open   ;
 12                   12                   13                              5280              10             100               0                 Open   ;
 21                   21                   22                              5280              10             100               0                 Open   ;
 22                   22                   23                              5280              12             100               0                 Open   ;
 31                   31                   32                              5280               6             100               0                 Open   ;
 110                  2                    12                               200              18             100               0                 Open   ;
 111                  11                   21                              5280              10             100               0                 Open   ;
 112                  12                   22                              5280              12             100               0                 Open   ;
 113                  13                   23                              5280               8             100               0                 Open   ;
 121                  21                   31                              5280               8             100               0                 Open   ;
 122                  22                   32                              5280               6             100               0                 Open   ;

[PUMPS]
;ID                   Node1                Node2                Properties          
 9                    9                    10                   HEAD     1                      ;

[VALVES]
;ID                   Node1                Node2                            Diameter Type              Setting           Minor Loss

[TAGS]
;type      name       tag       

[DEMANDS]
;ID        Demand     Pattern   
10         0.0        P_10      
11         150.0      P_11      
12         150.0      P_12      
13         100.0      P_13      
21         150.0      P_21      
22         200.0      P_22      
23         150.0      P_23      
31         100.0      P_31      
32         100.0      P_32      

[STATUS]
;ID        Setting   
[PATTERNS]
;ID        Multipliers

1 1.000000 1.200000 1.400000 1.600000 1.400000 1.200000
1 1.000000 0.800000 0.600000 0.400000 0.600000 0.800000

P_10 0.516117 0.512816 0.418808 0.404378 0.363482 0.333638
P_10 0.340347 0.369281 0.440456 0.498267 0.594838 0.595966
P_10 0.767969 0.846809 0.951067 1.032421 1.132487 1.229974
P_10 1.238076 1.387493 1.477990 1.446225 1.249247 1.319594
P_10 1.119618 1.251849 1.027288 1.143126 1.012920 0.970803
P_10 0.933197 0.796687 0.868618 0.902509 0.926172 0.958346
P_10 0.991659 0.955938 1.055121 0.979022 1.146414 0.977053
P_10 0.947802 0.960548 0.991639 0.896131 0.778691 0.676500
P_10 0.604077 0.580705 0.450733 0.386368 0.377994 0.360661
P_10 0.367244 0.394639 0.420030 0.482761 0.568451 0.594165
P_10 0.756288 0.852562 0.989086 1.062062 1.077276 1.093794
P_10 1.184951 1.129725 1.293941 1.171490 1.304219 1.234158
P_10 1.128529 1.153826 1.187591 1.117518 1.019610 0.855757
P_10 0.947150 0.962110 0.923219 0.925493 0.928275 0.984310
P_10 1.100508 1.047508 1.011620 1.078748 1.186709 1.028924
P_10 1.117848 1.053588 0.925033 0.781355 0.811190 0.730688
P_10 0.583750 0.486726 0.443017 0.389302 0.368108 0.352289
P_10 0.380526 0.390066 0.431736 0.491823 0.582654 0.729550
P_10 0.813270 0.909317 1.051093 1.090452 1.024074 1.095330
P_10 1.205793 1.350817 1.195493 1.319579 1.295839 1.191039
P_10 1.172539 1.146365 1.055077 1.161280 1.041087 1.035085
P_10 0.908562 1.067780 0.968250 1.081005 0.980632 1.133096
P_10 1.123362 1.149075 1.051966 1.040906 1.062686 1.131294
P_10 1.074615 0.927220 0.961691 0.881384 0.831169 0.766926
P_10 0.520871 0.526512 0.479385 0.384224 0.376489 0.347939
P_10 0.330861 0.371137 0.462204 0.500961 0.622965 0.664622
P_10 0.881800 0.943583 1.098304 1.057395 1.067270 1.255915
P_10 1.358527 1.299180 1.121426 1.273123 1.053841 1.138100
P_10 1.207404 1.085491 1.060217 0.989399 1.036660 1.066416
P_10 1.039560 0.953640 0.978509 1.009518 1.052022 1.061117
P_10 1.011648 1.136345 1.159021 1.107153 1.102755 1.073970
P_10 1.003559 0.956397 0.892037 0.917856 0.821041 0.782503
P_10 0.660127 0.547360 0.494892 0.450948 0.402840 0.335158
P_10 0.341673 0.415559 0.471844 0.567307 0.656545 0.797849
P_10 0.881769 1.102842 1.012502 1.194558 1.301698 1.354625
P_10 1.434045 1.435344 1.420826 1.457049 1.323096 1.360204
P_10 1.289530 1.206037 1.013964 1.153934 1.105277 1.003704
P_10 1.043356 1.000984 1.001318 0.924702 1.117581 1.061055
P_10 1.146098 1.085334 1.082249 0.914617 1.015880 1.002774
P_10 1.003275 0.926749 0.948161 0.810807 0.767529 0.774350
P_10 0.633665 0.603967 0.554638 0.466009 0.445619 0.408770
P_10 0.388932 0.417768 0.394748 0.511214 0.494253 0.513316
P_10 0.642364 0.740949 0.765852 0.891106 0.975527 1.073043
P_10 1.138512 1.087485 1.263659 1.275422 1.160765 1.179602
P_10 1.114259 1.175595 1.131540 1.112764 1.102937 1.053608
P_10 1.002217 1.061735 1.088700 1.103469 1.015044 1.092282
P_10 0.977939 1.003924 1.114411 0.940946 0.934065 0.902219
P_10 0.970533 0.845404 0.775678 0.766341 0.688806 0.662059
P_10 0.630727 0.563735 0.514778 0.448627 0.455571 0.405120
P_10 0.405087 0.365417 0.383254 0.376876 0.430221 0.479987
P_10 0.539398 0.538196 0.664239 0.676847 0.800492 0.882952
P_10 0.885403 0.893726 1.031923 1.037896 1.143956 1.071632
P_10 1.166845 1.008987 1.031886 0.947195 1.007335 0.922769
P_10 0.999645 0.957952 0.926964 0.971081 0.962494 0.892213
P_10 0.872562 1.060980 0.970522 1.022052 1.067334 1.022583
P_10 0.920034 0.986926 0.863087 0.769251 0.783510 0.662420
P_10 0.602747 0.514656 0.423033 0.358464 0.341730 0.330713
P_10 0.323012 0.383156 0.407782 0.479537 0.588973 0.683614
P_10 0.791423 0.870673 0.993527 1.143306 1.204774 1.246105
P_10 1.229891 1.390441 1.280769 1.373498 1.238223 1.333140
P_10 1.260507 1.170902 1.120131 0.966384 0.999183 0.916346
P_10 0.944741 0.958206 0.890104 0.946490 0.936144 0.920302
P_10 1.006948 1.052339 1.013643 1.109937 1.086272 1.122228
P_10 0.963680 1.107530 0.968731 0.812600 0.828784 0.723688
P_10 0.599781 0.510160 0.439850 0.418293 0.359648 0.373675
P_10 0.358664 0.392193 0.433900 0.482612 0.554240 0.674110
P_10 0.768978 0.805728 0.895394 1.120557 1.051956 1.139415
P_10 1.229864 1.201747 1.328938 1.281540 1.248095 1.280140
P_10 1.239108 1.097076 1.084391 1.060901 0.973300 0.895950
P_10 0.951909 0.965150 0.983541 0.990609 0.963953 0.982762
P_10 1.123473 1.085614 1.074700 1.157393 1.098615 1.176697
P_10 1.052105 1.100606 0.956089 0.795905 0.765427 0.684051
P_10 0.587750 0.525229 0.426105 0.411274 0.375602 0.338502
P_10 0.357040 0.396337 0.405462 0.540109 0.659867 0.714646
P_10 0.799099 0.904677 1.059298 1.012397 1.140114 1.086091
P_10 1.088452 1.297644 1.182963 1.217023 1.331166 1.306420
P_10 1.107241 1.154113 1.022719 1.114688 1.064834 0.989020
P_10 0.939723 0.993106 1.067636 1.003644 1.020562 1.033043
P_10 1.059395 1.211276 1.167367 1.071517 1.085920 1.071641
P_10 1.072307 1.030498 1.033524 0.946534 0.742476 0.675728
P_10 0.634167 0.522552 0.439154 0.409853 0.376472 0.392385
P_10 0.376380 0.411068 0.442886 0.515975 0.676384 0.705530
P_10 0.831820 1.026464 0.960097 1.075918 1.091624 1.315255
P_10 1.353852 1.275735 1.273143 1.160223 1.187040 1.267082
P_10 1.154139 1.096780 1.080874 0.944044 0.944330 1.023106
P_10 1.004120 1.001233 1.078044 0.986996 1.001604 1.047129
P_10 1.092905 1.057067 1.061974 1.029286 1.025866 1.148439
P_10 1.119752 1.026897 0.809159 0.853764 0.889650 0.724419
P_10 0.672572 0.570516 0.482276 0.450834 0.420113 0.419637
P_10 0.408791 0.435976 0.481130 0.556010 0.698400 0.764947
P_10 0.889743 1.045520 0.972725 1.298107 1.252505 1.234148
P_10 1.365947 1.464835 1.503979 1.510225 1.424349 1.181709
P_10 1.375620 1.342787 1.145668 1.217171 1.013769 1.111450
P_10 1.098403 1.092282 1.046809 1.058230 1.121913 1.078279
P_10 1.007903 1.156139 1.139103 1.062437 1.024434 1.156846
P_10 0.962199 0.918178 0.949465 0.873457 0.809187 0.722550
P_10 0.664324 0.576305 0.529892 0.504784 0.499789 0.437147
P_10 0.343047 0.397776 0.472154 0.506406 0.539449 0.551688
P_10 0.660491 0.774208 0.834291 0.860403 0.919886 1.047860
P_10 1.077772 1.162485 1.285075 1.253426 1.192723 1.265909
P_10 1.277515 1.107923 1.206863 1.080921 1.088315 1.089250
P_10 1.106393 1.140449 1.147892 1.132966 1.107555 1.025874
P_10 1.039300 1.068206 1.120875 1.087634 1.049007 0.874791
P_10 0.821015 0.868266 0.801537 0.801593 0.652360 0.592290
P_10 0.646884 0.487771 0.496082 0.475537 0.475987 0.428765
P_10 0.402232 0.395166 0.396114 0.399594 0.444479 0.501891
P_10 0.487268 0.600781 0.704829 0.720858 0.830084 0.902545
P_10 0.932625 0.945616 1.061564 0.984012 1.121251 1.103815
P_10 1.114871 1.113480 1.121951 0.982590 1.105397 1.017883
P_10 0.969697 1.057510 0.966500 0.948657 1.006928 0.973814
P_10 1.073407 0.985034 0.927381 1.014175 1.052857 1.073329
P_10 0.949542 0.960450 0.935275 0.835230 0.772563 0.677904
P_10 0.539725 0.496033 0.434915 0.405737 0.382960 0.351208
P_10 0.351191 0.391220 0.428200 0.485662 0.566972 0.636817
P_10 0.751383 0.924206 0.983619 1.041646 1.194613 1.227662
P_10 1.274743 1.394644 1.447625 1.507627 1.291109 1.276147
P_10 1.292679 1.271734 1.174788 1.148617 1.017495 1.104864
P_10 0.912843 0.977871 0.925329 0.990196 0.920467 1.033650
P_10 0.915447 1.131230 1.067272 1.083130 1.009595 1.138617
P_10 1.082650 1.019896 1.002728 0.959071 0.808662 0.703029
P_10 0.655571 0.541090 0.498277 0.460472 0.370102 0.354718
P_10 0.373108 0.436065 0.430540 0.529948 0.566240 0.627013
P_10 0.795001 0.858849 0.913083 1.050854 1.205233 1.023162
P_10 1.285376 1.221942 1.286044 1.218670 1.306791 1.191433
P_10 1.247817 1.158057 1.041189 1.117421 1.020226 0.986792
P_10 0.973709 0.862462 0.940218 0.900917 1.088271 1.006236
P_10 1.007754 1.120060 1.138088 0.998571 1.226618 1.142584
P_10 1.056991 1.012180 1.037302 0.922380 0.788182 0.679693
P_10 0.579448 0.522346 0.458558 0.435410 0.366557 0.372507
P_10 0.346126 0.429810 0.414869 0.514390 0.618322 0.689358
P_10 0.776152 0.853262 0.987507 1.113382 1.176947 1.146417
P_10 1.207411 1.340111 1.416905 1.276634 1.215541 1.041255
P_10 1.223001 1.101681 1.094555 1.177218 1.036133 1.136761
P_10 1.021780 0.974755 1.028971 1.091135 0.963166 1.118476
P_10 1.098456 1.048919 1.144884 1.130020 1.097111 1.107818
P_10 1.034828 1.039642 0.960908 0.963078 0.821708 0.721457
P_10 0.584214 0.502685 0.430965 0.388264 0.416480 0.360059
P_10 0.350575 0.412745 0.476749 0.548929 0.645220 0.721510
P_10 0.762180 0.840733 0.955001 1.068562 1.126167 1.231167
P_10 1.260696 1.257164 1.241658 1.288508 1.345394 1.234955
P_10 1.178360 1.079491 1.138603 0.948161 1.029496 1.054565
P_10 1.046023 1.041491 1.019624 0.973569 1.086261 1.104375
P_10 1.084939 1.085596 1.073515 1.133991 1.128132 1.116867
P_10 1.109473 1.003946 0.941134 0.888170 0.811180 0.706753
P_10 0.691844 0.550255 0.512280 0.483333 0.410987 0.380606
P_10 0.432045 0.418287 0.492625 0.591510 0.603961 0.808792
P_10 0.978794 1.037220 1.163313 1.253979 1.265232 1.415776
P_10 1.578247 1.564729 1.532257 1.615489 1.510354 1.448496
P_10 1.352193 1.275242 1.245222 1.130953 1.113545 1.038405
P_10 1.102385 1.056199 1.108035 0.991275 1.004561 1.137455
P_10 1.207845 1.082646 1.109590 1.062167 1.106731 1.096359
P_10 0.983772 0.976883 1.010321 0.890634 0.710941 0.739007
P_10 0.732183 0.577936 0.567870 0.473280 0.444067 0.398148
P_10 0.424633 0.400085 0.451556 0.484567 0.511899 0.564928
P_10 0.653444 0.780908 0.803219 0.917497 0.932615 1.010801
P_10 1.220757 1.249382 1.198877 1.279218 1.184772 1.274515
P_10 1.160621 1.157826 1.117701 1.201570 1.029713 1.016292
P_10 1.128002 1.109680 1.144282 1.156292 1.000917 1.054981
P_10 1.057004 0.970768 1.124498 1.040024 0.971679 0.956423
P_10 0.863787 0.851202 0.842167 0.739210 0.690869 0.654067
P_10 0.593405 0.522377 0.552199 0.469217 0.418923 0.450964
P_10 0.388896 0.435275 0.441108 0.392075 0.463321 0.470945
P_10 0.532750 0.589741 0.653577 0.734333 0.775781 0.877369
P_10 0.976529 1.050303 1.079943 1.042681 1.148333 1.136278
P_10 1.075371 1.134633 1.074334 1.096334 0.912981 1.020992
P_10 0.962844 0.953439 0.925899 0.944508 1.002436 1.056255
P_10 0.900740 0.961363 1.107198 0.987569 1.176899 0.951728
P_10 1.048880 0.841622 0.934064 0.843828 0.720282 0.757800
P_10 0.612099 0.546816 0.474851 0.425201 0.356247 0.351754
P_10 0.380977 0.358414 0.441709 0.505406 0.578748 0.724835
P_10 0.773296 0.903235 1.053780 1.094244 1.162088 1.366588
P_10 1.224525 1.433998 1.586507 1.452941 1.453419 1.486344
P_10 1.254887 1.173892 1.111660 1.100625 1.045105 0.971885
P_10 0.999353 0.979934 1.024442 0.993226 1.014749 1.074878
P_10 1.002203 1.051835 1.051343 1.154257 1.131689 1.057453
P_10 1.095715 1.113122 0.938579 0.865666 0.755310 0.705851
P_10 0.651533 0.538336 0.522171 0.425722 0.384466 0.379078
P_10 0.344916 0.416365 0.464136 0.496483 0.545890 0.665050
P_10 0.765557 0.924774 0.966442 1.047571 1.158547 1.285206
P_10 1.255016 1.233389 1.297734 1.283922 1.340714 1.296237
P_10 1.260342 1.258700 1.124224 0.959605 1.042026 1.031760
P_10 0.995127 0.965273 0.984053 0.943535 1.087916 1.083587
P_10 1.029296 1.089165 1.149028 1.197761 1.124347 1.120383
P_10 1.120528 1.231345 0.960208 0.928448 0.805799 0.727091
P_10 0.607956 0.526779 0.518657 0.419554 0.379907 0.365794
P_10 0.359350 0.403023 0.449500 0.501039 0.653224 0.709401
P_10 0.836486 0.953957 1.075648 1.093596 1.217774 1.281603
P_10 1.290159 1.222410 1.410243 1.372011 1.280452 1.363091
P_10 1.231208 1.122003 1.136111 1.109112 1.157310 1.101590
P_10 1.181125 1.129401 1.075599 1.007167 1.072043 1.047908
P_10 1.106764 1.184191 1.109243 1.231445 1.137206 1.114892
P_10 1.101863 1.044199 1.026625 0.897140 0.885203 0.741595
P_10 0.652069 0.575227 0.481411 0.413098 0.381535 0.369448
P_10 0.353549 0.428342 0.461370 0.529046 0.639999 0.746826
P_10 0.809146 0.870158 1.101164 0.968887 1.175231 1.252992
P_10 1.372035 1.249319 1.408460 1.438448 1.137357 1.204905
P_10 1.273037 1.067665 1.147624 1.090432 1.063909 1.067641
P_10 1.022375 1.023086 1.051178 1.054884 1.043258 1.031633
P_10 1.135271 1.131756 1.091765 1.133682 1.155622 1.220844
P_10 1.134042 1.078143 1.056419 0.912099 0.811574 0.769844
P_10 0.645849 0.558597 0.507741 0.470064 0.380673 0.393776
P_10 0.466701 0.443973 0.488191 0.576602 0.650819 0.815389
P_10 0.899815 1.005471 1.256329 1.373530 1.454149 1.349314
P_10 1.510587 1.550381 1.476690 1.433577 1.499279 1.210119
P_10 1.332540 1.321623 1.221812 1.268692 1.250322 1.067944
P_10 1.070704 1.039286 1.180303 1.047720 1.140502 1.117682
P_10 1.191042 1.164136 1.107957 1.119352 1.097064 1.033122
P_10 1.099187 1.030461 0.970795 0.853697 0.861019 0.738337
P_10 0.735500 0.610340 0.550100 0.547269 0.435093 0.434165
P_10 0.409864 0.444587 0.461678 0.469235 0.536036 0.554687
P_10 0.661058 0.742472 0.822118 0.992780 0.977041 1.043611
P_10 1.050698 1.174777 1.220958 1.271556 1.304460 1.330545
P_10 1.238668 1.205645 1.119695 1.172984 1.166075 1.078935
P_10 1.188384 1.122907 1.152374 1.175625 1.079977 1.147351
P_10 1.149717 1.088026 1.036060 1.190512 1.027189 1.072661
P_10 0.962438 0.889926 0.798374 0.795216 0.720496 0.660288
P_10 0.605600 0.598672 0.532583 0.506218 0.440224 0.452320
P_10 0.433271 0.406107 0.434676 0.448407 0.468280 0.497315
P_10 0.552948 0.600555 0.647921 0.665873 0.874430 0.934973
P_10 1.003049 1.135036 1.080273 1.048725 1.225341 1.190392
P_10 1.207280 1.176072 1.149679 0.979370 1.033949 0.994199
P_10 1.064395 0.981860 0.990646 0.966307 0.909613 1.035924
P_10 1.048799 0.952755 1.137460 1.076488 1.107686 1.106896
P_10 0.965142 1.053747 0.943592 0.786024 0.715916 0.671040
P_10 0.633325 0.549336 0.466739 0.420433 0.361191 0.350802
P_10 0.390939 0.380462 0.440431 0.558746 0.609229 0.665046
P_10 0.777571 0.874600 1.013144 1.203590 1.238162 1.290952
P_10 1.390318 1.487697 1.336277 1.423314 1.418624 1.402684
P_10 1.353306 1.219956 1.111778 1.109398 1.056845 1.031830
P_10 1.047423 0.863496 0.884664 1.007506 1.051394 1.007727
P_10 0.994083 1.182216 1.103903 1.117805 1.186669 1.183800
P_10 1.085104 1.053852 0.984086 0.974773 0.864038 0.737246
P_10 0.647755 0.581706 0.536709 0.432658 0.393989 0.405432
P_10 0.378339 0.404780 0.452166 0.514007 0.581742 0.715447
P_10 0.808763 1.018618 0.951606 1.110719 1.335416 1.341159
P_10 1.316174 1.333696 1.344827 1.455504 1.358612 1.364830
P_10 1.254564 1.275283 1.114345 1.077274 1.070573 0.988534
P_10 0.943321 0.923149 1.069266 1.096296 1.076634 1.150710
P_10 1.043179 1.124133 1.221466 1.188028 1.293667 1.117010
P_10 1.137480 1.076679 1.008186 0.885488 0.820629 0.748951
P_10 0.650233 0.579091 0.461519 0.426278 0.394758 0.368762
P_10 0.381780 0.384828 0.470119 0.548954 0.619813 0.662516
P_10 0.844500 0.914798 1.024412 1.086941 1.233326 1.265870
P_10 1.199368 1.375116 1.310673 1.426727 1.387753 1.346120
P_10 1.168423 1.205161 1.328851 1.189624 1.120912 1.195336
P_10 1.176463 1.005027 1.063089 1.108821 1.109510 1.087987
P_10 1.180172 1.201228 1.117515 1.194052 1.258220 1.165108
P_10 1.235191 1.042930 0.999090 0.917579 0.875893 0.736579
P_10 0.644407 0.547023 0.502800 0.460180 0.355623 0.367031
P_10 0.408883 0.404267 0.470276 0.490219 0.562041 0.730128
P_10 0.944217 0.983948 1.080973 1.155357 1.109377 1.312013
P_10 1.287524 1.323145 1.324796 1.354044 1.299524 1.276064
P_10 1.178685 1.075596 1.126495 1.056785 1.152362 1.070051
P_10 1.081833 1.069492 0.997156 1.197032 1.089995 1.098659
P_10 1.121096 1.226324 1.228563 1.156180 1.079636 1.125975
P_10 0.999058 1.083859 0.989720 0.915978 0.825140 0.851548
P_10 0.732536 0.584041 0.489899 0.432930 0.456010 0.422071
P_10 0.455472 0.500539 0.494672 0.611212 0.681232 0.794394
P_10 0.935605 1.080951 1.173248 1.468205 1.377103 1.441089
P_10 1.465616 1.556141 1.558086 1.554433 1.567331 1.397431
P_10 1.552009 1.308058 1.331077 1.182927 1.183624 1.170388
P_10 1.173508 1.130289 1.122320 1.110848 1.159067 1.158705
P_10 1.202450 1.073022 1.226431 1.170458 1.033018 1.075276
P_10 1.103456 1.068462 1.001324 0.926302 0.825777 0.717634
P_10 0.698433 0.645459 0.530540 0.511259 0.518025 0.459961
P_10 0.458331 0.429780 0.459414 0.496564 0.515457 0.644751
P_10 0.761450 0.792387 0.845447 0.883321 0.998322 1.181739
P_10 1.148772 1.167687 1.269894 1.346345 1.316563 1.259390
P_10 1.249987 1.188767 1.188337 1.149112 1.089593 1.225041
P_10 1.110082 1.193426 1.119777 1.072464 1.153596 1.158227
P_10 1.105082 1.203687 1.093684 1.140137 1.052203 1.027372
P_10 0.909966 0.904883 0.876638 0.749704 0.748988 0.746397
P_10 0.602168 0.590595 0.562654 0.479702 0.449865 0.452965
P_10 0.426954 0.391873 0.437155 0.440566 0.494146 0.489237
P_10 0.542113 0.651900 0.631164 0.725572 0.832027 0.965664
P_10 1.093926 1.050679 1.192269 1.195358 1.226719 1.244981
P_10 1.247904 1.137502 1.203073 1.173736 1.043578 1.049127
P_10 0.923604 1.030564 1.029343 1.079419 1.023005 0.977921
P_10 1.169214 1.165274 1.053119 1.216248 1.055503 1.028111
P_10 0.991719 0.930240 0.912969 0.881747 0.806376 0.676046
P_10 0.618241 0.616772 0.477479 0.410154 0.388670 0.367229
P_10 0.381896 0.358546 0.435612 0.510559 0.633463 0.727230
P_10 0.765594 1.034974 1.055010 1.159570 1.186846 1.312574
P_10 1.363694 1.460337 1.468224 1.530406 1.599041 1.344115
P_10 1.332351 1.253364 1.235317 1.077338 1.029566 1.008085
P_10 1.075586 1.045689 1.004965 1.023467 1.058750 1.056390
P_10 1.023420 1.117771 1.182488 1.253321 1.206719 1.014793
P_10 1.128466 1.093273 1.118578 0.957839 0.854475 0.780314
P_10 0.658879 0.599769 0.528705 0.452964 0.416758 0.417043
P_10 0.432325 0.432987 0.451463 0.567641 0.577889 0.686150
P_10 0.796066 0.975192 1.112713 1.143387 1.231602 1.321916
P_10 1.194761 1.304262 1.332676 1.507361 1.430122 1.367142
P_10 1.296494 1.257663 1.222928 1.078070 1.130487 1.025902
P_10 1.018055 0.946907 1.031462 1.129319 1.058470 1.187564
P_10 1.153415 1.230567 1.055472 1.231429 1.148989 1.082312
P_10 1.239698 1.198573 1.101457 1.011898 0.796721 0.809641
P_10 0.690174 0.565946 0.513003 0.459551 0.404903 0.370196
P_10 0.409364 0.424510 0.516200 0.548157 0.610335 0.793272
P_10 0.839624 0.957179 1.073903 1.131573 1.168004 1.299986
P_10 1.398123 1.289496 1.229819 1.390695 1.388375 1.506511
P_10 1.312585 1.141091 1.218185 1.276577 1.224075 1.126600
P_10 1.205851 1.105244 1.042808 1.089060 1.110154 1.135081
P_10 1.228686 1.137862 1.249786 1.273093 1.269364 1.189664
P_10 1.178222 1.113546 1.005892 1.002688 0.852919 0.762041
P_10 0.760898 0.552426 0.507819 0.447034 0.425051 0.368828
P_10 0.397960 0.429178 0.534946 0.598248 0.664345 0.717141
P_10 0.959960 0.981518 1.002342 1.207876 1.253614 1.257636
P_10 1.304542 1.394308 1.372717 1.393003 1.321649 1.226641
P_10 1.209309 1.316464 1.202334 1.213930 1.094019 1.059605
P_10 1.114263 1.060640 1.088546 1.144312 1.069085 1.179733
P_10 1.056230 1.214326 1.251580 1.249811 1.306302 1.166733
P_10 1.119896 1.186300 0.994585 1.003964 0.944787 0.770607
P_10 0.758230 0.638416 0.536807 0.470705 0.420619 0.416409
P_10 0.421122 0.448140 0.503860 0.618832 0.783465 0.870361
P_10 0.978056 1.173772 1.253701 1.275095 1.393181 1.454517
P_10 1.513035 1.525300 1.623708 1.577098 1.424402 1.502231
P_10 1.305430 1.278567 1.402724 1.279420 1.210649 1.190606
P_10 1.123086 1.171730 1.213159 1.150410 1.130262 1.135434
P_10 1.194865 1.262654 1.082612 1.250349 1.043315 1.205873
P_10 1.079122 1.030667 1.002398 0.961874 0.897080 0.751633
P_10 0.685411 0.627452 0.605450 0.592442 0.527038 0.475387
P_10 0.469146 0.474137 0.490217 0.515483 0.561792 0.640688
P_10 0.732433 0.809654 0.908082 0.960398 1.083120 1.234928
P_10 1.226946 1.210934 1.295436 1.446045 1.291061 1.330199
P_10 1.359398 1.290117 1.253977 1.279380 1.213168 1.123993
P_10 1.072364 1.132877 1.157400 1.222317 1.160656 1.123012
P_10 1.241297 1.199178 1.145744 1.172431 1.158711 0.976620
P_10 0.934986 0.905668 0.864936 0.817450 0.837182 0.713814
P_10 0.637088 0.634146 0.590978 0.517638 0.499416 0.407350
P_10 0.459594 0.463603 0.452884 0.448065 0.493791 0.485797
P_10 0.576223 0.605437 0.699639 0.783843 0.853859 0.891813
P_10 1.111240 1.195334 1.193074 1.146890 1.135372 1.290804
P_10 1.343628 1.213165 1.185029 1.198485 1.086145 1.050320
P_10 1.010259 1.147032 1.105159 0.997473 1.042503 0.924687
P_10 1.068784 1.023021 1.087549 1.046498 1.080877 1.140812
P_10 1.085243 1.043748 0.978714 0.842990 0.804509 0.761471
P_10 0.641353 0.545667 0.457924 0.437337 0.416353 0.385554
P_10 0.380355 0.401375 0.478800 0.551783 0.598674 0.682648
P_10 0.855594 0.959289 1.114622 1.196303 1.268800 1.333416
P_10 1.377717 1.405996 1.400633 1.471270 1.511988 1.422113
P_10 1.381682 1.245034 1.202028 1.215968 1.213595 1.058984
P_10 1.105765 0.956796 0.965199 1.073967 1.128384 1.161926
P_10 1.136177 1.209414 1.174625 1.113798 1.141570 1.099773
P_10 1.198951 1.239907 1.084448 1.046228 0.854721 0.736255
P_10 0.715073 0.579065 0.526645 0.481453 0.376369 0.389579
P_10 0.404472 0.451273 0.430604 0.574876 0.637313 0.735916
P_10 0.786783 0.951716 0.990083 1.101855 1.258073 1.249569
P_10 1.340885 1.408861 1.371286 1.375953 1.431693 1.280164
P_10 1.284190 1.256913 1.232687 1.059093 1.071437 1.029578
P_10 1.082133 0.949737 1.045283 1.093589 1.168235 1.163647
P_10 1.191275 1.156341 1.248115 1.257618 1.218298 1.300439
P_10 1.103522 1.155481 1.048463 0.990063 0.844240 0.772803
P_10 0.659800 0.568750 0.507767 0.430286 0.396270 0.406590
P_10 0.383960 0.466541 0.519566 0.553169 0.749672 0.819080
P_10 0.895507 1.043890 1.095757 1.178182 1.190948 1.302271
P_10 1.346804 1.331051 1.469176 1.416047 1.485403 1.300139
P_10 1.382344 1.332205 1.193001 1.233317 1.102858 1.066594
P_10 1.213939 1.060035 1.068210 1.090953 1.108651 1.208861
P_10 1.287367 1.207708 1.259093 1.146055 1.235044 1.252024
P_10 1.125762 1.176050 1.011615 0.969559 0.924759 0.826639
P_10 0.682940 0.658168 0.465856 0.485800 0.433704 0.411829
P_10 0.379169 0.441691 0.451773 0.550422 0.604172 0.776815
P_10 0.882159 1.063597 1.064991 1.246232 1.287072 1.256565
P_10 1.375597 1.431734 1.333087 1.287312 1.394470 1.323201
P_10 1.311517 1.203505 1.152206 1.115092 1.121508 0.998986
P_10 1.212758 1.110367 1.181134 1.105689 1.061717 1.125470
P_10 1.171486 1.125073 1.248927 1.292677 1.243654 1.165400
P_10 1.275973 1.071009 1.093475 0.917431 0.885487 0.793246
P_10 0.660920 0.638327 0.515363 0.496715 0.416884 0.416070
P_10 0.464614 0.481117 0.491522 0.586828 0.767242 0.871766
P_10 1.031399 1.123773 1.322122 1.373028 1.364671 1.602373
P_10 1.606723 1.620554 1.659418 1.636129 1.614743 1.514320
P_10 1.394484 1.335392 1.383745 1.226277 1.224035 1.152030
P_10 1.126814 1.127014 1.259950 1.211785 1.138321 1.188260
P_10 1.157851 1.223408 1.311170 1.123413 1.200803 1.122865
P_10 1.206772 1.175275 0.997850 0.935085 0.957079 0.822811
P_10 0.781713 0.680922 0.627408 0.547261 0.516219 0.444538
P_10 0.468490 0.457500 0.488263 0.506870 0.555728 0.621554
P_10 0.733069 0.854093 0.895734 1.044203 1.179592 1.021796
P_10 1.122456 1.367918 1.336665 1.382262 1.342219 1.186768
P_10 1.343720 1.311383 1.302186 1.298527 1.273054 1.262772
P_10 1.258475 1.291585 1.108814 1.171185 1.249962 1.179490
P_10 1.218137 1.204958 1.271946 1.226971 1.110404 1.090198
P_10 1.097041 0.961814 0.808641 0.783699 0.814625 0.660865
P_10 0.609212 0.564605 0.587251 0.556956 0.506330 0.464485
P_10 0.453866 0.422707 0.437300 0.466959 0.499362 0.605198
P_10 0.586950 0.620363 0.695456 0.844046 0.902665 0.947122
P_10 0.994055 1.044616 1.234313 1.109508 1.215923 1.275789
P_10 1.318404 1.135600 1.120466 1.173629 1.108281 1.152829
P_10 0.992948 1.083182 1.041507 1.095164 1.016842 1.069182
P_10 1.080738 1.139958 1.160523 1.134843 1.169954 1.129576
P_10 1.110659 1.072000 0.934955 0.855759 0.844385 0.752893
P_10 0.609991 0.562610 0.494947 0.414402 0.381348 0.402213
P_10 0.397237 0.440303 0.473006 0.534066 0.646989 0.737713
P_10 0.794170 1.004506 1.100888 1.262944 1.336619 1.351151
P_10 1.492598 1.542599 1.480675 1.490320 1.441411 1.430832
P_10 1.396171 1.330698 1.309850 1.240123 1.171488 1.094407
P_10 1.038347 1.029544 1.043467 1.083289 1.055840 1.106518
P_10 1.163147 1.168535 1.216694 1.240324 1.277195 1.240784
P_10 1.193837 1.121616 1.143753 0.985240 0.999212 0.809884
P_10 0.694305 0.611699 0.526253 0.491701 0.401441 0.424620
P_10 0.379609 0.448225 0.483441 0.553827 0.624922 0.698602
P_10 0.866868 0.967171 1.052120 1.154135 1.274190 1.362533
P_10 1.550658 1.220804 1.536401 1.433556 1.429135 1.409870
P_10 1.361708 1.287738 1.307630 1.246903 1.197567 1.106044
P_10 0.999163 1.128453 1.058835 1.032073 1.155961 1.200379
P_10 1.157940 1.204229 1.156031 1.152488 1.376355 1.188533
P_10 1.341388 1.156625 1.110659 0.954290 0.854985 0.784799
P_10 0.685280 0.577546 0.532422 0.460971 0.415396 0.379229
P_10 0.388175 0.477704 0.507004 0.546718 0.689768 0.754124
P_10 0.962167 0.959878 1.035745 1.202552 1.121464 1.243835
P_10 1.414470 1.539038 1.392484 1.503937 1.364091 1.364653
P_10 1.216775 1.421195 1.279306 1.337547 1.198199 1.085733
P_10 1.112889 1.182621 1.131159 1.185699 1.144722 1.112463
P_10 1.263017 1.262236 1.220978 1.120162 1.300310 1.270199
P_10 1.182829 1.228093 1.047973 0.991029 0.887668 0.794393
P_10 0.771464 0.669843 0.492632 0.434206 0.406784 0.398586
P_10 0.395500 0.440128 0.498940 0.566413 0.660941 0.835158
P_10 0.917159 0.998194 1.165345 1.102790 1.300810 1.285869
P_10 1.350033 1.357632 1.367011 1.500232 1.321577 1.349714
P_10 1.334878 1.370650 1.142197 1.049567 1.095034 1.150321
P_10 1.109111 1.202604 1.081895 1.144090 1.193726 1.213236
P_10 1.104093 1.194895 1.238878 1.191532 1.154769 1.219859
P_10 1.213511 1.178510 1.178454 0.955023 0.960422 0.813052
P_10 0.732109 0.575549 0.546445 0.492538 0.469867 0.425620
P_10 0.438801 0.467665 0.516848 0.623475 0.717516 0.802099
P_10 0.991194 1.109279 1.309769 1.431501 1.421669 1.688435
P_10 1.682467 1.678097 1.674411 1.374554 1.597446 1.480621
P_10 1.519340 1.367661 1.189535 1.252471 1.227197 1.201339
P_10 1.343136 1.260636 1.259364 1.241984 1.156137 1.271693
P_10 1.148164 1.262227 1.182782 1.208538 0.993656 1.129477
P_10 1.230373 1.103783 1.075918 1.089493 0.895182 0.873410
P_10 0.844410 0.692857 0.607576 0.557658 0.480830 0.456522