; Filename: networks/Net1.inp
; WNTR: 0.1.6
; Created: 2019-04-09 13:25:30
[TITLE]
EPANET Example Network 1
A simple example of modeling chlorine decay. Both bulk and
wall reactions are included.

[JUNCTIONS]
;ID                      Elevation       Demand Pattern                 
 10                               710               0                            ;
 11                               710               0                            ;
 12                               700               0                            ;
 13                               695               0                            ;
 21                               700               0                            ;
 22                               695               0                            ;
 23                               690               0                            ;
 31                               700               0                            ;
 32                               710               0                            ;

[RESERVOIRS]
;ID                                   Head                  Pattern
 9                                800                            ;

[TANKS]
;ID                              Elevation           Init Level            Min Level            Max Level             Diameter           Min Volume Volume Curve        
 2                                850             120             100             150            50.5               0                        ;

[PIPES]
;ID                   Node1                Node2                              Length             Diameter            Roughness           Minor Loss               Status
 10                   10                   11                             10530              18             100               0                 Open   ;
 11                   11                   12                              5280              14             100               0                 Open   ;
 12                   12                   13                              5280              10             100               0                 Open   ;
 21                   21                   22                              5280              10             100               0                 Open   ;
 22                   22                   23                              5280              12             100               0                 Open   ;
 31                   31                   32                              5280               6             100               0                 Open   ;
 110                  2                    12                               200              18             100               0                 Open   ;
 111                  11                   21                              5280              10             100               0                 Open   ;
 112                  12                   22                              5280              12             100               0                 Open   ;
 113                  13                   23                              5280               8             100               0                 Open   ;
 121                  21                   31                              5280               8             100               0                 Open   ;
 122                  22                   32                              5280               6             100               0                 Open   ;

[PUMPS]
;ID                   Node1                Node2                Properties          
 9                    9                    10                   HEAD     1                      ;

[VALVES]
;ID                   Node1                Node2                            Diameter Type              Setting           Minor Loss

[TAGS]
;type      name       tag       

[DEMANDS]
;ID        Demand     Pattern   
10         0.0        P_10      
11         150.0      P_11      
12         150.0      P_12      
13         100.0      P_13      
21         150.0      P_21      
22         200.0      P_22      
23         150.0      P_23      
31         100.0      P_31      
32         100.0      P_32      

[STATUS]
;ID        Setting   
[PATTERNS]
;ID        Multipliers

1 1.000000 1.200000 1.400000 1.600000 1.400000 1.200000
1 1.000000 0.800000 0.600000 0.400000 0.600000 0.800000

P_10 0.443992 0.472149 0.353457 0.305647 0.252112 0.238652
P_10 0.225384 0.263653 0.334469 0.405686 0.514515 0.539466
P_10 0.768739 0.840746 0.938745 1.055548 1.089853 1.275704
P_10 1.282464 1.405556 1.311703 1.499038 1.379649 1.326270
P_10 1.293693 1.234466 1.167907 1.016999 1.005072 0.924242
P_10 0.930179 0.914873 0.917374 0.805774 0.904224 0.982133
P_10 0.999780 1.025725 1.111513 1.099824 1.062676 1.025774
P_10 1.081633 1.074792 0.929526 0.889156 0.789851 0.686259
P_10 0.524333 0.460017 0.381391 0.283213 0.254222 0.237343
P_10 0.240865 0.258941 0.340020 0.373370 0.487618 0.567393
P_10 0.705913 0.816703 0.997274 1.062274 1.057992 1.141253
P_10 1.281287 1.230401 1.360837 1.331466 1.316652 1.214505
P_10 1.175930 0.980187 1.126263 0.987900 1.015871 0.994895
P_10 0.946240 0.915194 0.868406 0.962457 0.998280 1.116304
P_10 1.110541 1.055202 1.174562 1.041617 1.188668 1.046210
P_10 1.167694 0.982861 0.893007 0.924620 0.731189 0.569150
P_10 0.537684 0.482276 0.362089 0.292690 0.272968 0.235874
P_10 0.250286 0.297864 0.336384 0.412145 0.547924 0.627687
P_10 0.729298 0.877963 0.982123 1.140814 1.051066 1.175449
P_10 1.216491 1.113919 1.313865 1.333022 1.244392 1.287136
P_10 1.293299 1.175822 1.130575 1.084351 1.063442 0.997758
P_10 1.122154 1.093940 0.986696 1.009851 0.947594 1.084725
P_10 1.047916 1.037671 1.130101 1.148179 1.004944 1.139890
P_10 1.043587 1.057732 0.895275 0.870361 0.739345 0.698450
P_10 0.548820 0.474856 0.341195 0.317444 0.259706 0.238130
P_10 0.246131 0.270593 0.327987 0.448611 0.486107 0.628400
P_10 0.796708 0.892391 0.998990 1.010145 1.079021 1.227450
P_10 1.222718 1.334776 1.293673 1.133713 1.118851 1.173669
P_10 1.079937 1.144559 1.097441 0.999849 1.043654 1.033870
P_10 0.929656 1.094841 0.915648 1.041804 0.976222 0.989523
P_10 1.136059 1.100895 1.149146 0.975693 1.161108 1.150291
P_10 1.077272 1.081251 0.976749 0.832938 0.778744 0.676203
P_10 0.622998 0.448348 0.394006 0.354625 0.303977 0.265029
P_10 0.273557 0.289301 0.369313 0.487365 0.602582 0.717174
P_10 0.939074 1.092623 1.077341 1.321115 1.366111 1.487366
P_10 1.336563 1.528879 1.558392 1.529139 1.593840 1.493247
P_10 1.422839 1.238727 1.116429 1.195792 1.063993 1.059093
P_10 1.047260 1.061839 1.111220 1.075970 0.932679 1.014532
P_10 1.163494 1.114669 1.045024 1.141266 1.071028 1.063328
P_10 1.035309 1.026420 0.937895 0.885846 0.759955 0.726155
P_10 0.589387 0.501341 0.502916 0.449105 0.369939 0.332357
P_10 0.290341 0.302668 0.300867 0.357719 0.415767 0.491805
P_10 0.603368 0.681792 0.811137 0.886448 0.965171 1.054062
P_10 1.114058 1.184686 1.182423 1.179714 1.322083 1.160774
P_10 1.161375 1.137770 1.172397 1.146080 1.056178 1.071470
P_10 1.122302 1.076731 1.189518 1.087880 1.159093 1.034295
P_10 1.147133 1.197476 1.138289 1.071643 1.001309 0.929210
P_10 0.927927 0.855611 0.769025 0.720772 0.684972 0.611012
P_10 0.516826 0.448054 0.439277 0.386040 0.360338 0.356970
P_10 0.319682 0.304858 0.294017 0.294295 0.355387 0.383796
P_10 0.437436 0.497034 0.542313 0.690668 0.757502 0.884001
P_10 0.902063 1.076807 1.064327 1.173400 1.103844 1.055571
P_10 1.066582 1.146174 1.005763 0.978926 1.077746 1.025861
P_10 0.994343 0.987036 0.900478 0.895223 0.927616 1.011665
P_10 0.906061 1.066371 0.977424 1.015122 1.066143 0.950215
P_10 0.999298 0.843496 0.842081 0.763339 0.725441 0.641810
P_10 0.510323 0.404162 0.366410 0.317479 0.235962 0.223461
P_10 0.259933 0.257465 0.357959 0.410974 0.481263 0.616915
P_10 0.696635 0.939930 0.958322 1.057017 1.185766 1.249691
P_10 1.303880 1.384392 1.450316 1.310529 1.276601 1.319227
P_10 1.265825 1.232649 1.223676 1.129020 1.032265 1.018817
P_10 0.916594 0.928531 0.896939 0.964966 0.905457 0.966331
P_10 0.958554 1.121374 1.171951 1.227938 1.164463 1.051689
P_10 1.045411 1.016781 0.955393 0.859970 0.776593 0.646673
P_10 0.608463 0.540492 0.328334 0.330595 0.287349 0.239259
P_10 0.247407 0.267064 0.352372 0.379606 0.492206 0.603933
P_10 0.702441 0.809163 0.936594 1.065632 1.149640 1.225173
P_10 1.332014 1.244388 1.265633 1.362289 1.393083 1.236773
P_10 1.272094 1.213273 1.094364 1.110802 0.952542 0.954023
P_10 0.946603 0.983895 0.962525 0.888191 1.043800 1.067844
P_10 1.095993 1.160367 1.203111 1.085976 1.220744 1.137102
P_10 1.089758 1.004296 1.019814 0.876414 0.697440 0.626485
P_10 0.567611 0.439913 0.398625 0.271154 0.227525 0.245009
P_10 0.250350 0.287087 0.323581 0.456675 0.492201 0.615997
P_10 0.715561 0.954135 1.044964 1.060192 1.146614 1.180075
P_10 1.243120 1.310522 1.379597 1.290862 1.285155 1.171491
P_10 1.322358 1.220413 1.148864 1.187187 1.188424 1.125934
P_10 1.073377 1.102155 0.990385 1.017190 1.061090 1.072215
P_10 1.138311 1.041791 1.106871 1.087930 1.103999 1.150820
P_10 1.118734 1.065305 0.925436 0.868813 0.723027 0.649708
P_10 0.527203 0.485117 0.388812 0.307415 0.276064 0.259922
P_10 0.276458 0.285814 0.348428 0.441188 0.524770 0.700129
P_10 0.793484 0.870184 1.011550 0.977450 1.147026 1.184525
P_10 1.272335 1.278724 1.143714 1.301030 1.228327 1.285751
P_10 1.168790 1.121106 1.059288 1.082138 1.033715 0.998121
P_10 1.040833 0.958265 0.989845 0.982484 1.044682 1.028163
P_10 0.999981 1.027657 1.145249 1.233458 1.162751 1.161578
P_10 0.989148 1.090271 1.068673 0.773758 0.752430 0.713586
P_10 0.563478 0.482821 0.403108 0.337257 0.280413 0.283156
P_10 0.281022 0.328451 0.398162 0.523524 0.572185 0.798660
P_10 0.923296 0.986666 1.058971 1.257638 1.342386 1.529713
P_10 1.523545 1.469179 1.540700 1.549895 1.318158 1.338194
P_10 1.343176 1.188894 1.241419 1.127285 1.077225 1.128287
P_10 1.118039 1.035538 1.117949 1.073895 1.051412 1.074071
P_10 1.071245 1.054043 1.094810 1.261974 1.097206 0.996089
P_10 1.088000 0.911856 0.929129 0.840573 0.722034 0.707775
P_10 0.610915 0.540290 0.467245 0.389311 0.336898 0.327902
P_10 0.341840 0.323603 0.319099 0.349453 0.440006 0.487418
P_10 0.595797 0.769148 0.745408 0.882250 1.045009 1.103489
P_10 1.195519 1.246781 1.129479 1.209783 1.295346 1.232490
P_10 1.267663 1.197383 1.236131 1.188958 1.153704 1.050242
P_10 1.194722 1.124311 1.091670 1.097953 1.150080 1.097988
P_10 1.020772 0.961254 1.069533 0.982945 0.911293 1.047329
P_10 1.001434 0.795333 0.797440 0.790470 0.664825 0.650660
P_10 0.572315 0.492999 0.419923 0.399460 0.421821 0.345629
P_10 0.314375 0.286267 0.297951 0.330204 0.318738 0.401902
P_10 0.412038 0.520788 0.710592 0.725359 0.687688 0.888032
P_10 0.880467 1.035367 1.147755 1.169928 1.147774 1.198144
P_10 1.134588 1.119622 1.118948 1.006245 1.038192 0.996999
P_10 0.985952 0.898196 0.925783 1.091036 0.989586 0.892088
P_10 1.043862 0.992978 1.012046 0.985743 1.114926 1.044468
P_10 1.057778 0.906490 0.878504 0.801735 0.751463 0.611249
P_10 0.524375 0.413853 0.332434 0.298635 0.247907 0.237604
P_10 0.249876 0.275215 0.340748 0.399079 0.509146 0.661176
P_10 0.762744 0.910245 0.957691 1.078494 1.190827 1.353902
P_10 1.404008 1.406338 1.516919 1.382823 1.441620 1.309849
P_10 1.232903 1.307621 1.133476 1.078470 1.001162 0.883976
P_10 0.925260 0.910005 0.886084 1.094717 0.842683 1.021828
P_10 1.065754 0.998750 1.164829 1.119944 1.122585 1.114138
P_10 1.090528 1.054064 0.954248 0.850915 0.790275 0.697737
P_10 0.543249 0.494558 0.379548 0.348377 0.293311 0.249553
P_10 0.245597 0.306003 0.327613 0.393943 0.482841 0.623035
P_10 0.738448 0.800891 0.901056 1.123628 1.178505 1.366379
P_10 1.331865 1.332806 1.403227 1.374981 1.450456 1.381050
P_10 1.277059 1.213871 1.229654 1.180650 1.059781 0.898577
P_10 0.989915 0.981229 0.873758 1.012823 0.992736 1.172132
P_10 1.017071 1.109955 1.107604 1.183128 1.130928 1.054033
P_10 1.191111 0.974096 0.961979 0.841449 0.796855 0.660397
P_10 0.551946 0.442056 0.342160 0.293282 0.232982 0.257847
P_10 0.269117 0.306155 0.354676 0.434608 0.498972 0.656402
P_10 0.780923 0.797418 0.902652 1.172496 1.220894 1.304906
P_10 1.281177 1.324389 1.362749 1.405228 1.321689 1.279908
P_10 1.212206 1.163496 1.175683 1.139979 1.093137 1.122658
P_10 1.081684 1.029264 1.019452 1.111023 1.033927 1.047991
P_10 1.091224 1.140403 1.123324 1.012726 1.147684 1.103478
P_10 1.090557 1.022987 1.086577 0.893391 0.801024 0.660933
P_10 0.602312 0.483247 0.385385 0.321597 0.261598 0.238173
P_10 0.264728 0.264405 0.389481 0.429267 0.534771 0.662942
P_10 0.804127 0.909923 1.089505 1.024934 1.270178 1.268884
P_10 1.245095 1.281648 1.177362 1.218268 1.305592 1.156084
P_10 1.187072 1.075766 1.091418 1.082755 1.108572 1.018516
P_10 1.021025 1.012623 0.978447 1.141342 1.068858 1.080151
P_10 1.142560 1.110271 1.147626 1.218521 1.233493 1.151342
P_10 1.029671 1.068657 0.955061 0.917769 0.784097 0.744692
P_10 0.675153 0.485587 0.396363 0.334231 0.307490 0.312732
P_10 0.279230 0.315758 0.411125 0.486999 0.580636 0.783848
P_10 0.897269 1.054454 1.168310 1.376931 1.375322 1.427959
P_10 1.537782 1.537548 1.570340 1.366227 1.427368 1.375614
P_10 1.425311 1.305836 1.144820 1.109099 1.058750 1.070847
P_10 1.091622 1.123137 1.102796 1.097143 1.161476 1.127006
P_10 1.204561 1.118572 1.193318 1.167478 1.086077 1.078605
P_10 1.057410 1.068491 0.860379 0.833918 0.765492 0.757924
P_10 0.597341 0.568563 0.455023 0.465415 0.365027 0.346881
P_10 0.301545 0.318185 0.317644 0.355026 0.485955 0.514199
P_10 0.614986 0.684182 0.798051 0.904815 1.020592 1.010362
P_10 1.236360 1.229628 1.322979 1.239690 1.433822 1.255914
P_10 1.359488 1.164131 1.221099 1.192829 1.205908 1.179343
P_10 1.149768 1.198039 1.045090 1.116872 1.196408 1.052797
P_10 1.181942 1.189764 1.226702 1.044457 0.992766 1.164170
P_10 0.907231 0.895997 0.837191 0.749299 0.730275 0.633456
P_10 0.568647 0.527965 0.443730 0.398471 0.382482 0.341998
P_10 0.327476 0.307865 0.326119 0.315885 0.354343 0.429453
P_10 0.453949 0.527193 0.640188 0.696222 0.827935 0.852540
P_10 1.013521 1.143273 1.089578 1.118736 1.168357 1.305703
P_10 1.170484 1.125618 1.170749 1.080221 1.028043 1.009290
P_10 0.945752 1.048988 0.974439 0.860152 1.004380 1.039083
P_10 1.080942 1.070550 1.030854 1.112565 1.214865 1.027628
P_10 1.101115 0.979844 0.892940 0.865006 0.696660 0.666231
P_10 0.540662 0.417328 0.372357 0.329166 0.283975 0.240128
P_10 0.246921 0.272144 0.324716 0.402491 0.513054 0.636202
P_10 0.746947 0.902298 0.975067 0.988114 1.132354 1.310184
P_10 1.407404 1.487391 1.503882 1.576441 1.407178 1.386528
P_10 1.346656 1.312615 1.231665 1.057594 1.054438 0.952580
P_10 0.836940 0.891556 0.915562 1.002952 0.986071 1.053990
P_10 1.127022 1.134794 1.080727 1.099950 1.216443 1.122348
P_10 1.077601 1.054632 1.022098 0.877713 0.830945 0.675435
P_10 0.565654 0.453202 0.417411 0.317119 0.267673 0.237205
P_10 0.274520 0.267397 0.338785 0.420112 0.482886 0.643179
P_10 0.738746 0.843448 1.047743 1.109808 1.243049 1.219350
P_10 1.442332 1.209181 1.220261 1.394937 1.346148 1.213330
P_10 1.241418 1.228801 1.100619 1.084329 1.032406 1.033757
P_10 1.004823 0.897665 0.942132 0.941228 0.990564 1.117064
P_10 1.038003 1.143457 1.212958 1.294197 1.330925 1.245142
P_10 1.026515 0.976584 1.101928 0.900939 0.806867 0.672556
P_10 0.568825 0.451487 0.360184 0.332760 0.284708 0.261805
P_10 0.279305 0.313610 0.375749 0.478050 0.552813 0.671862
P_10 0.756579 0.876408 1.009966 1.051305 1.170950 1.233855
P_10 1.212585 1.333157 1.488579 1.218034 1.337802 1.336370
P_10 1.417764 1.419009 1.225158 1.167595 1.095120 1.140718
P_10 1.026807 1.074140 1.029868 1.092645 1.043710 1.125592
P_10 1.032525 1.162925 1.033670 1.124316 1.138912 1.195354
P_10 1.171927 1.075911 0.908437 0.909639 0.808775 0.691562
P_10 0.607003 0.485911 0.420583 0.312391 0.262059 0.261334
P_10 0.257212 0.325469 0.370584 0.447636 0.579823 0.707351
P_10 0.826013 0.935143 1.065769 1.103825 1.377742 1.319803
P_10 1.508445 1.452650 1.346369 1.346577 1.358385 1.342634
P_10 1.245707 1.080312 1.107766 1.094042 1.126795 1.035634
P_10 0.956455 1.062201 0.996225 1.049541 1.137101 1.033662
P_10 1.080323 1.153430 1.166683 1.227824 1.242178 1.170903
P_10 1.145018 1.056146 1.051470 0.917861 0.743353 0.728199
P_10 0.592511 0.508150 0.422284 0.321330 0.311797 0.264327
P_10 0.277312 0.334190 0.428455 0.510488 0.658553 0.765900
P_10 0.976383 1.095607 1.129993 1.237025 1.508957 1.512657
P_10 1.682159 1.575132 1.633842 1.549439 1.573257 1.582620
P_10 1.326889 1.512206 1.278990 1.121914 1.173882 1.072357
P_10 1.095438 1.033391 1.123027 1.160574 1.178101 1.248597
P_10 1.065364 1.151246 1.079940 1.093626 1.084563 1.134017
P_10 0.987540 0.954243 0.882096 0.866850 0.816906 0.752770
P_10 0.660353 0.568486 0.506966 0.402945 0.391809 0.339448
P_10 0.322590 0.314285 0.313165 0.371174 0.499089 0.594865
P_10 0.593248 0.747995 0.770321 0.933606 0.957697 1.201198
P_10 1.151392 1.282872 1.163286 1.323556 1.315856 1.339368
P_10 1.226183 1.275358 1.173538 1.220384 1.263543 1.150592
P_10 1.180781 1.196828 1.196851 1.086930 1.221405 1.223267
P_10 1.250968 1.061696 1.217234 1.095227 1.024488 1.001126
P_10 0.874199 0.891164 0.836200 0.764811 0.650049 0.659827
P_10 0.614628 0.488530 0.464973 0.390610 0.368484 0.354334
P_10 0.332138 0.337814 0.316327 0.335223 0.379209 0.374681
P_10 0.464712 0.542654 0.600549 0.741428 0.692719 0.926846
P_10 0.975329 1.011138 1.064100 1.172071 1.171024 1.270113
P_10 1.202142 1.129418 1.172733 1.150680 1.040329 1.147247
P_10 0.971227 0.977717 1.071314 1.024178 1.006021 1.106318
P_10 1.088296 0.993149 1.071136 1.178125 1.201151 1.081382
P_10 1.118317 1.099222 0.966473 0.818120 0.709152 0.577180
P_10 0.508982 0.458306 0.366798 0.312889 0.281139 0.246214
P_10 0.259108 0.278112 0.339836 0.412780 0.501131 0.612742
P_10 0.673985 0.909770 1.007902 1.154117 1.170437 1.413413
P_10 1.477219 1.601524 1.607245 1.439608 1.568667 1.319822
P_10 1.379690 1.293779 1.242759 1.120861 1.032312 1.054532
P_10 0.968045 0.948317 0.901851 0.963795 0.974167 1.035348
P_10 1.091699 1.071982 1.201558 1.173658 1.307092 1.258240
P_10 1.180846 1.075272 1.013729 0.895309 0.795693 0.725322
P_10 0.640874 0.508271 0.371179 0.317509 0.285194 0.268268
P_10 0.264650 0.283491 0.356872 0.461975 0.506134 0.609670
P_10 0.859147 0.993359 0.999850 1.035505 1.220764 1.437942
P_10 1.432736 1.354335 1.298806 1.492512 1.384033 1.306218
P_10 1.222232 1.263513 1.226610 1.043466 1.121142 1.053471
P_10 1.088235 0.996721 0.986111 0.942687 1.001147 1.118779
P_10 1.150330 1.114974 1.242985 1.187054 1.193818 1.220585
P_10 1.066304 1.105870 1.026483 0.940440 0.840472 0.689281
P_10 0.549234 0.459133 0.405658 0.329480 0.283909 0.269271
P_10 0.303006 0.294458 0.392893 0.495050 0.559894 0.673180
P_10 0.776908 0.930305 0.924809 1.263044 1.321135 1.323069
P_10 1.436767 1.468688 1.492754 1.558756 1.329937 1.395168
P_10 1.301520 1.185977 1.230210 1.136864 1.167371 1.068897
P_10 1.146945 1.198076 1.100689 1.138627 1.141938 1.126177
P_10 1.189583 1.169652 1.154218 1.165436 1.248646 1.198612
P_10 1.012767 1.015325 1.003804 0.971285 0.811220 0.758043
P_10 0.630213 0.494779 0.380394 0.324103 0.267840 0.276604
P_10 0.270684 0.313660 0.400531 0.492855 0.609668 0.634793
P_10 0.876690 0.915977 1.095808 1.214191 1.305075 1.404816
P_10 1.336957 1.482957 1.326873 1.353462 1.235452 1.300086
P_10 1.282991 1.190703 1.090984 1.164628 1.131966 1.129922
P_10 1.030910 1.012543 1.123767 1.110479 1.142348 1.106787
P_10 1.068599 1.226880 1.152503 1.207546 1.272322 1.178507
P_10 1.085175 1.070689 1.043682 0.956657 0.879933 0.733904
P_10 0.627050 0.518191 0.438014 0.363851 0.297775 0.296460
P_10 0.309668 0.351227 0.418092 0.558707 0.659878 0.753609
P_10 0.918702 1.179153 1.289591 1.405917 1.529280 1.587924
P_10 1.646608 1.663007 1.606765 1.460830 1.656057 1.527605
P_10 1.459531 1.320396 1.353460 1.310780 1.058869 1.188636
P_10 1.191280 1.069898 1.143550 1.263904 1.310798 1.366078
P_10 1.191067 1.071092 1.071295 1.216995 1.117420 1.013740
P_10 1.065782 1.130122 0.935721 0.927233 0.892033 0.702095
P_10 0.657371 0.575947 0.491519 0.483807 0.394310 0.351659
P_10 0.319811 0.304906 0.337827 0.386787 0.439793 0.508408
P_10 0.609354 0.769209 0.851193 0.895298 1.033922 1.108297
P_10 1.275358 1.335739 1.370480 1.432831 1.476557 1.413936
P_10 1.381166 1.329978 1.297090 1.136075 1.147517 1.167557
P_10 1.142867 1.202200 1.237807 1.201898 1.061548 1.120794
P_10 1.199451 1.209416 1.112618 1.076007 1.048292 1.006270
P_10 1.085415 0.871237 0.880156 0.746328 0.697885 0.670111
P_10 0.546208 0.562124 0.473310 0.422192 0.407421 0.368139
P_10 0.342927 0.321159 0.354355 0.358572 0.375916 0.430749
P_10 0.471733 0.578582 0.677974 0.728468 0.831691 0.882004
P_10 1.027947 1.025833 1.156093 1.161372 1.200299 1.245220
P_10 1.272766 1.378574 1.152888 1.187824 1.094966 1.134880
P_10 1.027225 0.978904 0.953005 1.001752 1.015700 1.094794
P_10 1.093102 1.074102 1.027306 1.069846 1.048634 1.044669
P_10 1.101233 0.963917 0.953626 0.949546 0.664352 0.714365
P_10 0.542785 0.454044 0.393358 0.328648 0.270003 0.260947
P_10 0.266365 0.263359 0.371877 0.423955 0.518385 0.618278
P_10 0.787053 0.872157 1.112915 1.134073 1.250648 1.300562
P_10 1.462369 1.404603 1.359555 1.442003 1.534840 1.270958
P_10 1.373166 1.351268 1.263431 1.122286 1.139768 0.980084
P_10 1.089700 1.005079 0.952952 1.064462 1.023453 1.035889
P_10 1.074498 1.165606 1.139057 1.185795 1.194282 1.215146
P_10 1.139299 1.034097 1.037983 0.997245 0.792937 0.816898
P_10 0.573869 0.524167 0.402290 0.324290 0.287656 0.261478
P_10 0.281376 0.294623 0.364967 0.428553 0.526913 0.618907
P_10 0.770949 0.864572 1.069587 1.127813 1.233912 1.308581
P_10 1.324840 1.296177 1.444230 1.440441 1.575054 1.487659
P_10 1.315613 1.253236 1.176414 1.225527 1.090852 1.016828
P_10 0.999550 1.021592 1.055412 1.095569 1.095136 1.171480
P_10 1.049643 1.215017 1.204248 1.254191 1.291212 1.184699
P_10 1.147521 1.058148 0.951693 0.916980 0.869845 0.723013
P_10 0.526920 0.491369 0.379281 0.345011 0.250970 0.273808
P_10 0.252189 0.284745 0.391023 0.502930 0.646740 0.756292
P_10 0.837767 0.879772 1.160013 1.125614 1.280610 1.278416
P_10 1.333289 1.482522 1.525058 1.413001 1.495544 1.359475
P_10 1.430511 1.249395 1.350103 1.218378 1.202138 1.178570
P_10 1.042020 1.157732 1.026531 1.104113 1.222981 1.119048
P_10 1.118405 1.149708 1.186993 1.193545 1.204643 1.284881
P_10 1.189776 1.042611 1.009058 0.958152 0.847115 0.682036
P_10 0.642487 0.507979 0.423389 0.344602 0.285702 0.280008
P_10 0.293404 0.308965 0.356554 0.537368 0.582399 0.727149
P_10 0.809324 1.009333 1.041797 1.235461 1.269817 1.433105
P_10 1.436030 1.411317 1.390571 1.358528 1.392366 1.367747
P_10 1.185947 1.236456 1.275139 1.169527 1.026812 1.161506
P_10 1.093136 1.107729 1.058332 1.066437 1.134253 1.214717
P_10 1.232488 1.175180 1.224492 1.187508 1.179088 1.260673
P_10 1.250932 1.023471 1.079220 0.943279 0.942822 0.818266
P_10 0.641030 0.538399 0.459780 0.387838 0.348751 0.290061
P_10 0.322055 0.332961 0.440754 0.518179 0.680957 0.810119
P_10 0.911288 1.167817 1.244143 1.332535 1.612938 1.607470
P_10 1.604218 1.667220 1.635377 1.612151 1.382780 1.471168
P_10 1.437128 1.426290 1.247452 1.178098 1.243641 1.234133
P_10 1.121162 1.115452 1.186400 1.126687 1.216048 1.203371
P_10 1.171059 1.225801 1.222103 1.246124 1.282074 1.248550
P_10 1.170851 1.073783 1.023235 0.931477 0.864992 0.775397
P_10 0.680410 0.582395 0.581524 0.426796 0.423019 0.365151
P_10 0.363034 0.312801 0.357113 0.387929 0.468702 0.539280
P_10 0.642689 0.789959 0.929546 0.964935 1.100188 1.244312
P_10 1.269239 1.333311 1.125411 1.329607 1.455233 1.283513
P_10 1.316653 1.300042 1.350074 1.304485 1.251860 1.265895
P_10 1.204402 1.270565 1.130617 1.248628 1.217624 1.269888
P_10 1.267310 1.228091 1.126887 1.146101 1.139206 0.969444
P_10 0.877179 0.995756 0.828260 0.769290 0.691104 0.617661
P_10 0.636463 0.554588 0.465051 0.477614 0.445278 0.331729
P_10 0.323876 0.309401 0.314585 0.356054 0.389695 0.447025
P_10 0.492107 0.578190 0.671861 0.785874 0.880792 0.844152
P_10 1.091841 1.039564 1.128017 1.284895 1.234917 1.277634
P_10 1.277218 1.230964 1.260235 1.144169 1.116895 1.065518
P_10 1.124137 1.008314 1.063184 0.920268 1.014673 1.056807
P_10 1.048784 1.005025 1.183008 1.273811 1.191277 1.167080
P_10 1.107939 1.036222 0.987337 0.855027 0.795614 0.668740
P_10 0.568938 0.481728 0.387860 0.336316 0.270988 0.279956
P_10 0.295865 0.288478 0.367878 0.470464 0.573088 0.595764
P_10 0.763349 0.938376 1.052312 1.210375 1.248406 1.545404
P_10 1.553631 1.593960 1.560514 1.630875 1.458997 1.543794
P_10 1.348122 1.311847 1.181747 1.273851 1.119565 1.020569
P_10 1.018127 1.002161 0.983701 1.036770 1.109134 1.094146
P_10 1.194207 1.110331 1.208504 1.260516 1.183566 1.247597
P_10 1.110830 1.034433 1.063970 0.937502 0.870924 0.791867
P_10 0.595275 0.468135 0.413354 0.367036 0.310412 0.287447
P_10 0.268540 0.305971 0.327550 0.423349 0.558990 0.660570
P_10 0.882526 0.915983 1.046925 1.110852 1.231735 1.329468
P_10 1.364965 1.344595 1.274477 1.486269 1.556743 1.492726
P_10 1.500222 1.306522 1.220767 1.194464 1.110907 1.089714
P_10 0.978626 1.139375 1.085617 1.012814 1.138160 1.056816
P_10 1.105664 1.150763 1.200145 1.368827 1.333107 1.232064
P_10 1.321308 1.092569 0.967010 0.946357 0.889423 0.734360
P_10 0.567180 0.470506 0.365958 0.345357 0.285033 0.282095
P_10 0.293398 0.316495 0.414552 0.520366 0.594743 0.699526
P_10 0.832458 0.894220 1.090226 1.304937 1.177945 1.421761
P_10 1.483727 1.372617 1.357386 1.520259 1.501913 1.317428
P_10 1.325026 1.247811 1.319353 1.282182 1.261064 1.239670
P_10 1.110211 1.018957 1.162664 1.119671 1.154458 1.213993
P_10 1.228810 1.160994 1.153118 1.308854 1.235727 1.181382
P_10 1.250731 1.127927 1.081333 0.972977 0.867260 0.759986
P_10 0.616415 0.537363 0.434694 0.342325 0.295139 0.291450
P_10 0.267152 0.329640 0.395968 0.551533 0.636240 0.761292
P_10 0.827039 0.945340 1.113727 1.107905 1.366328 1.388854
P_10 1.480954 1.383368 1.494246 1.282304 1.359519 1.141702
P_10 1.352441 1.258019 1.208449 1.160486 1.157075 1.184312
P_10 1.090373 1.073425 1.170912 1.199617 1.202790 1.242825
P_10 1.274964 1.235442 1.229929 1.233956 1.245035 1.279335
P_10 1.145904 1.108159 1.078752 0.992007 0.783953 0.814943
P_10 0.669907 0.522555 0.423607 0.373389 0.331311 0.296679
P_10 0.305571 0.389509 0.477662 0.571526 0.706058 0.852754
P_10 1.004599 1.168494 1.423815 1.290120 1.548635 1.589002
P_10 1.554963 1.630107 1.701221 1.451793 1.631301 1.630123
P_10 1.515158 1.319737 1.241777 1.394450 1.317257 1.310545
P_10 1.235701 1.086570 1.256502 1.180389 1.062926 1.105842
P_10 1.215608 1.315163 1.127881 1.268260 1.217968 1.243461
P_10 1.155979 1.112718 1.001939 0.924885 0.818315 0.788236
P_10 0.700191 0.632971 0.495159 0.471566 0.403267 0.379697
P_10 0.325135 0.330460 0.366554 0.377314 0.479897 0.590110
P_10 0.657660 0.712973 0.807910 1.008139 1.009973 1.254289
P_10 1.272829 1.333951 1.370536 1.340873 1.323177 1.399084
P_10 1.416603 1.344264 1.210500 1.315956 1.237322 1.213357
P_10 1.171234 1.308772 1.205726 1.151925 1.187371 1.159433
P_10 1.092240 1.214527 1.177956 1.178732 1.086171 1.079338
P_10 1.014336 0.996561 0.853402 0.784723 0.833725 0.695533
P_10 0.606089 0.549646 0.508330 0.456098 0.390049 0.352710
P_10 0.366122 0.331836 0.334424 0.368638 0.362434 0.504008
P_10 0.495472 0.598290 0.707860 0.818123 0.931320 0.948574
P_10 1.094799 1.055395 1.099605 1.300488 1.237425 1.266825
P_10 1.228001 1.317067 1.319485 1.296714 1.250901 1.244646
P_10 1.120886 1.171531 1.102933 1.196143 1.097506 1.067508
P_10 1.186112 1.115334 1.236086 1.094053 1.163098 1.182914
P_10 1.112449 1.081265 0.937909 0.882679 0.862840 0.699555
P_10 0.583266 0.463295 0.408041 0.305213 0.302250 0.272544
P_10 0.290447 0.306518 0.388555 0.471774 0.581164 0.703707
P_10 0.847340 0.969792 1.108653 1.275367 1.385179 1.564446
P_10 1.426521 1.550540 1.546807 1.681876 1.588053 1.523592
P_10 1.393478 1.288456 1.347879 1.240747 1.167135 1.165794
P_10 1.011699 0.969706 1.077110 1.050455 1.022465 1.144749
P_10 1.124033 1.101952 1.193640 1.295913 1.317802 1.349393
P_10 1.109257 1.156367 1.125289 1.019358 0.929570 0.741556
P_10 0.681367 0.493214 0.420285 0.386591 0.293607 0.301636
P_10 0.288826 0.329590 0.358930 0.450029 0.602619 0.700898
P_10 0.842210 0.930953 1.071482 1.234729 1.392524 1.413850
P_10 1.370688 1.569869 1.477066 1.642576 1.412947 1.398786
P_10 1.383781 1.253836 1.167680 1.183844 1.215564 1.147210
P_10 1.167073 1.074918 1.101786 1.067013 1.172092 1.096117
P_10 1.274901 1.263883 1.182068 1.340266 1.311632 1.357403
P_10 1.400558 1.195032 1.090359 1.019630 0.869165 0.739156
P_10 0.631860 0.536273 0.423217 0.335342 0.305896 0.284302
P_10 0.285781 0.324342 0.365277 0.479915 0.622590 0.763660
P_10 0.813775 1.006096 1.170124 1.206378 1.308604 1.373997
P_10 1.369072 1.485352 1.443657 1.412013 1.605985 1.532964
P_10 1.524638 1.333306 1.229589 1.146697 1.226096 1.167386
P_10 1.136540 0.989168 1.184211 1.132116 1.147995 1.142179
P_10 1.070716 1.341028 1.206043 1.251302 1.337912 1.240522
P_10 1.171632 1.201152 1.049076 1.044969 0.885387 0.754311
P_10 0.646553 0.537705 0.440657 0.380460 0.287441 0.278452
P_10 0.303649 0.327063 0.404087 0.475701 0.672008 0.745387
P_10 0.927162 0.976099 1.129460 1.235501 1.311161 1.431374
P_10 1.439116 1.547040 1.530366 1.483837 1.472765 1.409461
P_10 1.211769 1.327944 1.332657 1.159180 1.132867 1.044874
P_10 1.066784 1.143103 1.087406 1.152750 1.246798 1.244281
P_10 1.274877 1.200064 1.283143 1.130218 1.333267 1.256687
P_10 1.216620 1.138544 1.155401 0.986786 0.879247 0.832921
P_10 0.695844 0.520937 0.461311 0.386694 0.359220 0.320105
P_10 0.318379 0.369623 0.454178 0.576195 0.730646 0.857509
P_10 1.026238 1.199400 1.359361 1.397213 1.438921 1.801047
P_10 1.644401 1.760785 1.837946 1.603337 1.592903 1.619629
P_10 1.343447 1.521008 1.486270 1.400084 1.266274 1.263379
P_10 1.207391 1.224300 1.203259 1.285068 1.241836 1.307192
P_10 1.203971 1.351026 1.197830 1.046019 1.232497 1.247919
P_10 1.226215 1.160072 1.016574 0.888723 0.852778 0.832013
P_10 0.689625 0.592639 0.538819 0.478164 0.416022 0.310757