; Filename: networks/Net1.inp
; WNTR: 0.1.6
; Created: 2019-04-09 13:20:59
[TITLE]
EPANET Example Network 1
A simple example of modeling chlorine decay. Both bulk and
wall reactions are included.

[JUNCTIONS]
;ID                      Elevation       Demand Pattern                 
 10                               710               0                            ;
 11                               710               0                            ;
 12                               700               0                            ;
 13                               695               0                            ;
 21                               700               0                            ;
 22                               695               0                            ;
 23                               690               0                            ;
 31                               700               0                            ;
 32                               710               0                            ;

[RESERVOIRS]
;ID                                   Head                  Pattern
 9                                800                            ;

[TANKS]
;ID                              Elevation           Init Level            Min Level            Max Level             Diameter           Min Volume Volume Curve        
 2                                850             120             100             150            50.5               0                        ;

[PIPES]
;ID                   Node1                Node2                              Length             Diameter            Roughness           Minor Loss               Status
 10                   10                   11                             10530              18             100               0                 Open   ;
 11                   11                   12                              5280              14             100               0                 Open   ;
 12                   12                   13                              5280              10             100               0                 Open   ;
 21                   21                   22                              5280              10             100               0                 Open   ;
 22                   22                   23                              5280              12             100               0                 Open   ;
 31                   31                   32                              5280               6             100               0                 Open   ;
 110                  2                    12                               200              18             100               0                 Open   ;
 111                  11                   21                              5280              10             100               0                 Open   ;
 112                  12                   22                              5280              12             100               0                 Open   ;
 113                  13                   23                              5280               8             100               0                 Open   ;
 121                  21                   31                              5280               8             100               0                 Open   ;
 122                  22                   32                              5280               6             100               0                 Open   ;

[PUMPS]
;ID                   Node1                Node2                Properties          
 9                    9                    10                   HEAD     1                      ;

[VALVES]
;ID                   Node1                Node2                            Diameter Type              Setting           Minor Loss

[TAGS]
;type      name       tag       

[DEMANDS]
;ID        Demand     Pattern   
10         0.0        P_10      
11         150.0      P_11      
12         150.0      P_12      
13         100.0      P_13      
21         150.0      P_21      
22         200.0      P_22      
23         150.0      P_23      
31         100.0      P_31      
32         100.0      P_32      

[STATUS]
;ID        Setting   
[PATTERNS]
;ID        Multipliers

1 1.000000 1.200000 1.400000 1.600000 1.400000 1.200000
1 1.000000 0.800000 0.600000 0.400000 0.600000 0.800000

P_10 0.661953 0.602343 0.539252 0.461688 0.452612 0.411570
P_10 0.443504 0.492419 0.479709 0.547695 0.619387 0.622672
P_10 0.718033 0.859453 1.043498 1.022409 1.061931 1.010350
P_10 1.220580 1.129992 1.261825 1.289530 1.186384 1.198258
P_10 1.070969 1.192909 1.055622 1.023327 0.984339 0.949724
P_10 0.893196 0.811501 0.810487 0.862872 0.958893 0.828154
P_10 0.839659 1.006134 1.051249 1.097680 1.082219 0.985846
P_10 1.026749 1.040164 0.850488 0.938850 0.848370 0.743618
P_10 0.705081 0.608393 0.595825 0.496097 0.475742 0.461265
P_10 0.445872 0.462602 0.556023 0.572679 0.634068 0.709590
P_10 0.675188 0.851407 0.961898 1.059564 1.085391 1.032647
P_10 1.128645 1.214122 1.193474 1.193429 1.225485 1.102980
P_10 1.090165 1.035429 1.014943 1.046601 0.881608 0.868684
P_10 0.932478 0.828445 0.891408 0.898496 0.845098 0.963495
P_10 0.914567 1.036602 1.017077 1.033015 1.012076 1.037652
P_10 1.070561 0.944031 1.009151 0.817620 0.800185 0.801655
P_10 0.716186 0.597272 0.522066 0.504514 0.462578 0.438706
P_10 0.460190 0.486012 0.533819 0.586162 0.616677 0.701952
P_10 0.796415 0.927180 0.985034 1.013492 1.176042 1.087763
P_10 1.094387 1.184381 1.186129 1.214193 1.223223 1.143965
P_10 1.122999 1.035400 1.096045 0.990111 1.019530 1.003982
P_10 0.959935 0.975299 0.870586 0.970383 0.957446 1.031809
P_10 1.011725 0.953523 1.072831 1.003972 1.080903 1.043572
P_10 1.025267 0.966830 0.962071 0.899249 0.826874 0.734976
P_10 0.678425 0.638526 0.510523 0.522339 0.464521 0.447471
P_10 0.455401 0.481982 0.515459 0.592703 0.652090 0.746845
P_10 0.803253 0.962800 0.978691 1.024604 1.107852 1.163180
P_10 1.142425 1.128890 1.226261 1.260452 1.092524 1.072945
P_10 1.068026 1.020243 0.977092 0.994865 0.942368 0.949041
P_10 0.934766 0.870885 0.907166 0.926617 0.968282 0.967452
P_10 0.961792 0.989545 1.093446 0.978352 1.004448 1.079879
P_10 1.008725 1.020671 0.982468 0.878217 0.840760 0.771582
P_10 0.717730 0.573497 0.563458 0.485499 0.499656 0.417693
P_10 0.532907 0.449344 0.543792 0.647676 0.672776 0.744875
P_10 0.841619 1.074088 1.002533 1.116791 1.274478 1.287747
P_10 1.307228 1.326448 1.328356 1.248409 1.148411 1.243597
P_10 1.187382 1.174447 1.057118 0.933378 0.977839 1.013246
P_10 0.986044 0.889879 0.985810 0.939483 1.104844 1.069049
P_10 0.952141 1.000161 0.942942 1.078371 1.021238 0.988768
P_10 0.994083 0.902799 1.036130 0.843379 0.769769 0.749518
P_10 0.714679 0.622433 0.610315 0.543968 0.507399 0.539233
P_10 0.476656 0.480866 0.535277 0.547994 0.612480 0.672871
P_10 0.690810 0.790879 0.775612 0.851811 0.998602 0.983732
P_10 1.104554 1.124639 1.125559 1.118924 1.118839 1.125648
P_10 1.168367 1.028816 1.139454 1.032629 1.032195 0.978717
P_10 1.079850 0.958392 0.957892 0.996538 0.957989 0.981408
P_10 1.008968 0.932920 0.947716 1.029451 0.961984 0.866768
P_10 0.838188 0.816323 0.844105 0.815970 0.726125 0.713953
P_10 0.652204 0.583521 0.556049 0.515343 0.517333 0.518111
P_10 0.476932 0.488940 0.502801 0.519221 0.549332 0.537274
P_10 0.584330 0.659237 0.732250 0.815315 0.754332 0.869326
P_10 0.854827 0.945824 1.000814 1.049065 1.060126 0.971640
P_10 1.021443 1.144865 0.972022 0.968215 0.957775 0.944915
P_10 0.984668 0.898673 0.968609 0.832893 0.843628 0.905471
P_10 0.958988 0.943873 1.027055 0.999819 1.009387 1.025614
P_10 0.966775 1.081221 0.950563 0.771840 0.786030 0.696515
P_10 0.647712 0.581775 0.534695 0.482242 0.472764 0.477836
P_10 0.480907 0.461987 0.550756 0.497307 0.602100 0.678189
P_10 0.815224 0.850576 0.961359 1.055664 1.074634 1.078073
P_10 1.243876 1.318855 1.343220 1.209879 1.174657 1.205776
P_10 1.225387 1.200003 1.062257 0.974357 1.097160 0.892115
P_10 0.928490 0.827378 0.857893 0.867467 0.872685 0.931691
P_10 0.927411 1.005084 0.963553 1.013777 1.065863 1.108827
P_10 1.047441 0.920025 0.926904 0.850164 0.816762 0.774073
P_10 0.728770 0.594111 0.547524 0.476048 0.492171 0.473298
P_10 0.439994 0.489660 0.519992 0.594305 0.628037 0.653605
P_10 0.863674 0.822580 0.920890 1.028620 1.069606 1.152851
P_10 1.115165 1.252997 1.221187 1.243640 1.151504 1.217781
P_10 1.141711 1.107536 0.987205 0.942628 0.886911 0.958435
P_10 0.963773 0.917805 0.897620 0.876578 0.934837 1.035803
P_10 1.015695 1.028748 1.060853 1.101478 1.055717 1.056560
P_10 0.994774 1.088471 0.922970 0.894569 0.825009 0.685369
P_10 0.716817 0.592395 0.535745 0.489910 0.468423 0.427073
P_10 0.517216 0.493249 0.562508 0.556116 0.632558 0.693374
P_10 0.799861 0.889225 0.986657 0.981554 1.135109 1.023254
P_10 1.173767 1.258363 1.231893 1.273254 1.164526 1.201734
P_10 1.149964 1.040339 1.125503 1.057296 1.013969 0.975016
P_10 0.952308 0.955519 0.911196 0.959794 0.944278 0.951186
P_10 1.051197 1.073722 1.062751 0.997348 0.951882 1.073386
P_10 0.943058 1.025707 0.924356 0.914404 0.834451 0.716709
P_10 0.625269 0.584951 0.562298 0.523443 0.477319 0.459504
P_10 0.458023 0.505144 0.505681 0.563261 0.714196 0.668676
P_10 0.838858 0.843931 1.048007 1.061945 1.079902 1.029644
P_10 1.183734 1.257824 1.124994 1.156201 1.016421 1.217440
P_10 1.128285 1.114312 0.900658 1.054046 0.969374 0.947994
P_10 0.965058 0.956153 0.912749 0.961237 0.982291 1.041211
P_10 0.955842 0.989190 1.048917 1.072601 1.018401 1.028022
P_10 1.068819 1.077909 0.937671 0.950463 0.774547 0.788948
P_10 0.693044 0.667840 0.546826 0.498438 0.481490 0.485527
P_10 0.524251 0.543398 0.575497 0.623016 0.656093 0.783120
P_10 0.921777 0.946655 1.056179 1.300816 1.225301 1.171164
P_10 1.269351 1.329143 1.386006 1.317086 1.432597 1.341514
P_10 1.281993 1.085209 1.172035 1.095832 0.991432 0.991157
P_10 1.017110 1.007360 1.070053 0.963343 0.972551 1.027243
P_10 1.115866 1.059727 1.109260 1.040824 1.041821 1.013751
P_10 1.031431 1.011774 1.011632 0.874437 0.891598 0.786313
P_10 0.770996 0.714075 0.645224 0.573074 0.557534 0.551214
P_10 0.514850 0.513484 0.524590 0.532077 0.609703 0.674263
P_10 0.683581 0.766989 0.820488 0.925937 1.035520 1.011616
P_10 1.070286 1.050833 1.162381 1.121422 1.054914 1.110273
P_10 1.151782 1.145489 0.991797 1.106672 0.931323 1.163628
P_10 0.969697 0.939873 0.935508 1.106478 1.066545 1.013034
P_10 1.044666 0.972195 1.010609 1.073317 0.972915 0.914428
P_10 0.877156 0.886772 0.802462 0.809057 0.754267 0.684448
P_10 0.629743 0.657539 0.568482 0.563386 0.574159 0.525525
P_10 0.518864 0.467627 0.529880 0.472868 0.569325 0.555865
P_10 0.603511 0.660758 0.665457 0.737046 0.841000 0.912165
P_10 0.895547 0.917983 1.053370 0.995964 1.045565 1.002711
P_10 1.143352 1.019167 1.044446 1.000130 0.988497 1.037000
P_10 0.917251 0.926234 0.961193 0.920804 0.902730 0.998636
P_10 0.986131 0.969196 0.973676 0.932276 0.963529 1.034237
P_10 0.907559 0.911602 0.916662 0.900460 0.764633 0.688192
P_10 0.677968 0.614504 0.539997 0.512788 0.476988 0.437486
P_10 0.468601 0.477935 0.501973 0.587689 0.670627 0.751004
P_10 0.760821 0.834525 0.974354 1.148125 1.184336 1.191379
P_10 1.290500 1.197187 1.226961 1.293179 1.335909 1.168707
P_10 1.104853 0.978162 1.086941 1.148103 0.947259 0.938213
P_10 0.848564 0.800414 0.875239 0.900858 0.875204 0.882515
P_10 0.933161 0.995548 1.059466 1.014501 1.068813 1.055891
P_10 1.094680 1.094465 0.984573 0.933168 0.789812 0.720641
P_10 0.701725 0.647190 0.591138 0.526422 0.541802 0.477808
P_10 0.505553 0.501558 0.574885 0.582795 0.633549 0.725131
P_10 0.744769 0.925028 1.042297 0.911976 1.160849 1.072678
P_10 1.188560 1.182581 1.138168 1.139233 1.222493 1.112276
P_10 1.158230 1.044824 1.035517 1.029864 1.026020 0.929043
P_10 0.933203 0.908203 0.852807 0.902289 0.961934 0.947506
P_10 0.992358 1.080893 1.118030 1.119253 1.194938 1.116442
P_10 0.921168 0.984339 0.898305 0.900023 0.806972 0.783110
P_10 0.637828 0.539893 0.530504 0.446595 0.449717 0.433879
P_10 0.448444 0.476104 0.521157 0.585746 0.679602 0.841671
P_10 0.807445 0.880936 1.035574 1.079293 1.115180 1.113863
P_10 1.200644 1.210047 1.200751 1.264026 1.276470 1.134330
P_10 1.166581 1.185037 1.070248 1.031519 0.956203 1.163701
P_10 1.070197 1.008125 0.958546 0.968326 1.145516 0.860068
P_10 0.979594 1.065799 1.107981 0.994314 1.067248 1.063045
P_10 1.091076 1.024362 1.023939 0.888468 0.850098 0.777574
P_10 0.713807 0.689200 0.581079 0.492168 0.445270 0.428768
P_10 0.411253 0.481781 0.526143 0.641005 0.657203 0.789367
P_10 0.849830 0.897911 0.975247 1.041920 1.193179 1.129992
P_10 1.184289 1.245436 1.197944 1.182018 1.231934 1.111741
P_10 1.059749 1.005972 1.037922 1.019923 1.030807 0.943727
P_10 0.942924 0.951569 0.973643 1.009418 0.916285 1.065707
P_10 1.100723 1.053831 1.054393 1.112696 1.033102 0.993259
P_10 0.980922 0.998532 0.966168 0.884301 0.890361 0.800798
P_10 0.643829 0.625965 0.578982 0.478844 0.497000 0.466302
P_10 0.504155 0.525966 0.546604 0.680143 0.735437 0.819978
P_10 0.942181 1.030098 1.101059 1.230918 1.232750 1.296303
P_10 1.496093 1.326415 1.220370 1.312832 1.272828 1.280855
P_10 1.332210 1.278350 1.151339 1.151259 1.182466 0.994709
P_10 1.045673 1.055423 0.945342 1.052872 1.055515 1.011511
P_10 1.062464 1.023199 1.080497 1.097548 1.065842 1.062109
P_10 0.983153 0.988645 0.974090 0.960307 0.846107 0.823404
P_10 0.702755 0.731022 0.647829 0.594116 0.506895 0.502045
P_10 0.518902 0.527051 0.517037 0.560616 0.597416 0.605765
P_10 0.724028 0.733115 0.944351 0.989462 0.930104 1.049746
P_10 1.062726 1.080990 1.200555 1.110485 1.151672 1.163910
P_10 1.200906 1.028680 1.107008 1.075087 1.162170 1.123181
P_10 0.964499 1.005462 1.069354 0.934908 1.049649 1.061517
P_10 0.942163 1.002530 1.068797 1.026478 0.936599 0.975156
P_10 0.965151 0.864660 0.817142 0.840839 0.777644 0.650354
P_10 0.686948 0.695566 0.564893 0.559948 0.555743 0.553227
P_10 0.503805 0.509579 0.500017 0.510114 0.577809 0.551316
P_10 0.616316 0.678168 0.749387 0.756494 0.838894 0.844060
P_10 0.929940 1.027512 0.949564 1.168111 1.059623 1.094750
P_10 1.047663 1.078021 1.041234 1.073115 0.977574 0.925783
P_10 0.940720 1.003528 0.925246 0.936407 0.928094 0.994472
P_10 1.054176 1.001393 0.974338 1.099932 0.997101 1.128548
P_10 1.044344 0.903034 0.989391 0.858714 0.844811 0.768189
P_10 0.655826 0.626401 0.581889 0.538466 0.459354 0.473861
P_10 0.505048 0.495770 0.526686 0.632002 0.653061 0.723892
P_10 0.805666 0.855776 0.949908 1.093393 1.158366 1.215047
P_10 1.203023 1.347490 1.294205 1.254831 1.393501 1.337308
P_10 1.199004 1.168321 1.181532 1.080227 1.018359 1.029538
P_10 1.000249 0.973445 0.850510 0.946950 0.853610 0.985502
P_10 1.083100 1.104835 0.995761 1.234160 1.096867 1.126016
P_10 1.096630 1.082417 0.990132 0.954642 0.879271 0.758782
P_10 0.700648 0.667660 0.592669 0.544652 0.458508 0.466836
P_10 0.497082 0.502036 0.501576 0.557142 0.654406 0.753138
P_10 0.821247 0.885261 0.962428 1.032770 1.065875 1.122876
P_10 1.147650 1.188433 1.268264 1.325879 1.108031 1.097204
P_10 1.163909 0.979113 1.116783 1.001221 0.967475 0.991021
P_10 0.995293 0.903628 1.008617 0.992244 0.966218 0.990136
P_10 1.036088 1.037771 1.100796 1.094026 1.278049 1.112035
P_10 1.116845 0.967304 0.925038 0.907849 0.784409 0.813692
P_10 0.721551 0.626481 0.562740 0.545709 0.467183 0.479472
P_10 0.476299 0.465359 0.574804 0.619765 0.655866 0.786482
P_10 0.842824 0.886388 0.979758 1.013723 1.129724 1.257795
P_10 1.115540 1.198934 1.341012 1.255691 1.222455 1.273369
P_10 1.232893 1.224461 1.075168 1.127459 1.044355 1.004765
P_10 0.982048 0.990781 1.003616 0.966106 1.037924 0.983903
P_10 1.044549 1.096805 1.098767 1.010667 1.065373 1.095460
P_10 1.107930 1.048615 0.998074 1.019146 0.850970 0.702952
P_10 0.779323 0.646564 0.568291 0.564880 0.494175 0.475149
P_10 0.446364 0.461655 0.544660 0.640431 0.677041 0.750605
P_10 0.852234 0.887865 0.952230 1.074723 1.013316 1.199407
P_10 1.173746 1.187860 1.127641 1.228689 1.247746 1.265180
P_10 1.118441 1.106365 1.048443 1.095657 1.005446 1.020941
P_10 1.015801 0.901086 0.953716 1.047539 0.993742 0.994278
P_10 1.150955 1.034440 1.075468 1.191660 1.117445 1.106892
P_10 1.019376 1.012603 1.003709 0.906498 0.862019 0.837674
P_10 0.743179 0.655002 0.584849 0.568691 0.520508 0.497876
P_10 0.520612 0.554590 0.605615 0.661319 0.768405 0.811468
P_10 0.823442 0.980501 1.184490 1.196083 1.211826 1.305443
P_10 1.163043 1.425386 1.378481 1.431248 1.430942 1.251013
P_10 1.205114 1.260492 1.252584 1.144080 1.107903 1.076269
P_10 1.092702 1.000910 0.929726 1.160937 1.121175 1.118695
P_10 1.221457 1.040912 1.047580 0.974031 1.058518 1.150457
P_10 1.063922 0.933680 0.952388 0.842538 0.922798 0.781022
P_10 0.713627 0.708204 0.630537 0.618708 0.559105 0.541060
P_10 0.513524 0.527951 0.579663 0.534470 0.633140 0.643080
P_10 0.669586 0.808747 0.822778 0.942995 1.074728 1.019514
P_10 1.112013 1.277860 1.124885 1.140836 1.224595 1.240677
P_10 1.155793 1.057495 1.081226 1.094403 0.994997 1.063467
P_10 1.095593 1.061970 1.118773 1.106117 1.038884 1.027272
P_10 1.063860 1.140184 1.098078 0.992700 1.083892 1.020519
P_10 1.008513 0.953278 0.811340 0.749807 0.839770 0.692902
P_10 0.671990 0.710069 0.582246 0.611385 0.567389 0.563910
P_10 0.517091 0.539077 0.549315 0.530344 0.575418 0.586629
P_10 0.620648 0.693426 0.744890 0.838490 0.882303 0.919650
P_10 0.953128 0.995308 1.054453 1.054479 1.114331 1.154795
P_10 1.133722 1.076094 0.965180 0.960712 1.087125 0.948294
P_10 0.979522 0.877020 0.958043 1.038562 1.048553 0.912364
P_10 1.050686 1.068676 1.033401 1.000431 1.025070 0.981144
P_10 0.997213 0.953931 0.926317 0.965902 0.872254 0.760464
P_10 0.704076 0.617595 0.563854 0.525912 0.488793 0.469077
P_10 0.484469 0.501192 0.538890 0.593339 0.652822 0.730036
P_10 0.912795 0.952332 0.988820 1.126427 1.137234 1.270110
P_10 1.202404 1.112607 1.274650 1.286962 1.234547 1.328744
P_10 1.260191 1.098924 1.227163 1.164492 1.062025 1.033554
P_10 1.070863 0.877724 0.927283 0.907049 1.040329 0.954332
P_10 1.036833 1.095709 1.118323 1.156582 1.132883 1.152835
P_10 1.187572 1.016217 0.989780 0.944574 0.885347 0.816692
P_10 0.717068 0.672538 0.601610 0.540480 0.529161 0.470653
P_10 0.470462 0.516283 0.554012 0.609702 0.700758 0.734161
P_10 0.810062 0.892412 1.035859 1.069333 1.055105 1.211318
P_10 1.276708 1.197584 1.278626 1.373806 1.320935 1.236972
P_10 1.110954 1.166662 1.124248 1.090625 1.030508 1.071801
P_10 0.962036 0.876962 0.995412 0.951626 1.029140 1.024368
P_10 0.994958 1.072955 1.070379 1.111368 1.123475 1.035658
P_10 1.132085 1.049556 0.932255 1.002014 0.844738 0.800362
P_10 0.748378 0.578561 0.593778 0.540326 0.505655 0.514350
P_10 0.505495 0.538752 0.574959 0.568915 0.699240 0.779755
P_10 0.915854 0.920304 1.036537 1.139255 1.011531 1.144721
P_10 1.265903 1.188308 1.381025 1.284067 1.233976 1.142453
P_10 1.328638 1.314174 1.098000 1.136649 1.037063 1.092429
P_10 1.106957 1.076481 0.973305 1.001948 1.015870 0.980719
P_10 1.075703 0.970580 1.059526 0.951562 1.094005 1.150119
P_10 1.079669 1.130682 1.131489 0.993750 1.003049 0.794353
P_10 0.743210 0.666114 0.512410 0.538409 0.499256 0.516115
P_10 0.452199 0.509652 0.523542 0.580861 0.729208 0.801165
P_10 0.826080 0.975914 1.113266 1.097794 1.094142 1.227316
P_10 1.224113 1.327901 1.337956 1.357360 1.246456 1.139050
P_10 1.214774 1.136705 1.079208 0.965527 1.027344 1.056048
P_10 0.955469 0.980325 0.991830 1.006093 0.970263 1.106245
P_10 1.031742 1.003096 1.099615 1.262315 1.069297 1.094167
P_10 1.204044 1.000560 0.972030 0.907055 0.884050 0.852371
P_10 0.783363 0.710231 0.618066 0.563728 0.478894 0.447529
P_10 0.532006 0.552541 0.616201 0.663872 0.789637 0.844122
P_10 0.993649 1.083965 1.150278 1.249719 1.221478 1.479226
P_10 1.501180 1.505849 1.305463 1.373798 1.444614 1.446391
P_10 1.365839 1.172517 1.152244 1.122111 1.065297 1.047208
P_10 1.099933 1.191461 1.030375 1.025003 1.122950 1.159341
P_10 1.159428 1.110015 1.100093 1.194841 1.083154 1.087699
P_10 1.052195 1.076585 0.971745 1.026831 0.899791 0.889534
P_10 0.770790 0.718419 0.667218 0.623939 0.601470 0.566164
P_10 0.594371 0.526739 0.573762 0.601267 0.574588 0.685383
P_10 0.777575 0.814523 0.884413 0.952074 1.056538 1.132611
P_10 1.088812 1.158704 1.205318 1.234804 1.223091 1.319611
P_10 1.177569 1.237957 1.090827 1.129466 1.126777 1.091052
P_10 1.057870 1.140866 0.993687 1.138982 1.129128 1.088498
P_10 1.110935 1.109290 1.178809 1.104382 1.095411 0.968157
P_10 0.991326 0.977406 0.913387 0.866837 0.784127 0.723383
P_10 0.771910 0.609335 0.625309 0.615440 0.542696 0.544291
P_10 0.498105 0.514380 0.515144 0.540681 0.629826 0.568064
P_10 0.645235 0.683841 0.767853 0.745145 0.934485 0.953456
P_10 0.998908 1.034904 1.174147 1.164964 1.119173 1.198515
P_10 0.952092 1.215369 1.130998 1.038394 1.020841 0.976505
P_10 1.016899 0.975022 1.054239 1.066999 1.091295 1.042932
P_10 0.973045 1.094145 1.193956 1.059144 1.121389 0.972426
P_10 1.058085 0.940849 1.018045 0.869325 0.885371 0.785949
P_10 0.683334 0.691320 0.604411 0.488481 0.466020 0.487525
P_10 0.521503 0.516905 0.500137 0.653470 0.653665 0.729118
P_10 0.831784 0.919467 0.904049 1.043110 1.287970 1.287295
P_10 1.336604 1.362417 1.470822 1.364898 1.468242 1.333450
P_10 1.280421 1.210268 1.117326 1.133614 1.087453 1.059533
P_10 0.941026 0.960157 0.944141 0.976276 0.993593 0.991556
P_10 1.104523 1.060669 1.115793 1.273027 1.149025 1.120327
P_10 1.080589 1.092842 0.952512 0.931512 0.883810 0.824851
P_10 0.723706 0.663358 0.574154 0.513241 0.573775 0.551267
P_10 0.491470 0.536659 0.534303 0.640873 0.666849 0.850844
P_10 0.905309 0.872319 1.081435 1.061703 1.177639 1.206493
P_10 1.290333 1.215448 1.296989 1.249086 1.257673 1.287537
P_10 1.254549 1.059880 1.134962 1.146305 1.072312 1.092235
P_10 1.076211 1.057920 0.969993 0.967065 1.119797 1.084847
P_10 1.061394 1.074204 1.188773 1.219803 1.126797 1.101407
P_10 1.130477 1.184198 0.970383 1.008257 0.858368 0.837594
P_10 0.679932 0.669273 0.565661 0.585524 0.525425 0.465166
P_10 0.507402 0.527350 0.614461 0.661976 0.703639 0.839383
P_10 0.886745 0.972187 1.078591 1.000146 1.130781 1.236788
P_10 1.203976 1.243854 1.475484 1.237327 1.339117 1.295407
P_10 1.250751 1.087150 1.217651 1.065763 1.087192 1.095636
P_10 1.134331 1.066619 1.057746 0.967581 0.945047 1.070151
P_10 1.056260 1.168204 1.156471 1.165424 1.069839 1.148437
P_10 1.161010 1.141508 1.060319 0.933745 0.960441 0.774945
P_10 0.717938 0.626029 0.598255 0.578140 0.505892 0.474147
P_10 0.487049 0.506113 0.612840 0.601505 0.713767 0.791481
P_10 0.832904 0.991018 1.043090 1.166492 1.091161 1.322421
P_10 1.197978 1.351031 1.164488 1.251604 1.236323 1.194480
P_10 1.154674 1.185958 1.210972 1.109969 1.051815 1.049278
P_10 1.022634 0.969307 1.037440 0.982230 1.156328 1.117807
P_10 1.103699 1.183809 1.031427 1.126823 1.217445 1.245459
P_10 1.239583 1.021070 0.989948 1.122352 0.874127 0.834807
P_10 0.757196 0.678813 0.676823 0.550004 0.571692 0.568588
P_10 0.511462 0.557656 0.589912 0.671283 0.777261 0.878221
P_10 0.956281 1.040181 1.291633 1.231079 1.357891 1.256236
P_10 1.476260 1.503958 1.453285 1.426027 1.442395 1.463563
P_10 1.372922 1.321334 1.085277 1.159509 1.154870 1.082925
P_10 1.141911 1.248926 1.184491 1.123039 1.114140 1.127870
P_10 1.086573 1.183221 1.115804 1.226767 1.156346 1.077905
P_10 1.023693 1.094073 1.013699 0.941325 0.894423 0.824811
P_10 0.843175 0.755581 0.697390 0.716649 0.619566 0.571711
P_10 0.520571 0.549293 0.536686 0.560123 0.596938 0.683515
P_10 0.730974 0.791469 0.921684 0.990627 1.106065 1.120007
P_10 1.111478 1.233590 1.238622 1.234526 1.157335 1.232633
P_10 1.197829 1.191235 1.129410 1.129461 1.242732 1.108248
P_10 1.082749 1.134049 1.219545 1.119714 1.056868 1.123551
P_10 1.151813 1.032692 1.167100 0.995825 1.089632 1.053476
P_10 0.971399 0.947373 0.903033 0.906263 0.823017 0.728822
P_10 0.772434 0.682520 0.636138 0.583707 0.506342 0.587465
P_10 0.559221 0.540199 0.561094 0.505454 0.576447 0.595592
P_10 0.678948 0.733044 0.720146 0.829915 0.990979 1.020271
P_10 1.033267 1.069712 1.129035 1.138285 1.150846 1.168491
P_10 1.119581 1.117449 1.072102 1.094970 1.122886 1.067037
P_10 0.975026 1.002755 0.965457 1.011543 1.016430 1.057853
P_10 0.987192 1.046989 1.069709 1.069541 1.144124 0.964655
P_10 1.045298 0.964306 1.005784 0.991610 0.782183 0.763462
P_10 0.698581 0.672390 0.605656 0.522325 0.512714 0.495283
P_10 0.406080 0.530996 0.592933 0.630296 0.734280 0.700102
P_10 0.926286 0.964042 1.033886 1.128340 1.271708 1.259633
P_10 1.288503 1.423990 1.391552 1.477895 1.419198 1.321159
P_10 1.317690 1.148923 1.206908 1.124718 1.005323 1.086230
P_10 0.977913 1.053536 1.013431 0.932530 1.065978 1.134399
P_10 1.004183 1.067385 1.134024 1.167069 1.135282 1.135296
P_10 1.246030 1.119792 0.953888 1.024638 0.909515 0.813797
P_10 0.744426 0.665250 0.625138 0.545447 0.552649 0.500776
P_10 0.538248 0.517624 0.629551 0.583249 0.715666 0.794796
P_10 0.812498 0.945346 0.993071 1.088092 1.318034 1.256246
P_10 1.310972 1.339714 1.319999 1.260733 1.318423 1.241474
P_10 1.297649 1.158071 1.191335 1.174112 0.956550 1.110618
P_10 0.994951 0.979167 1.001018 1.053150 1.021317 1.099319
P_10 1.103234 1.030979 1.237082 1.188102 1.104907 1.156035
P_10 1.113511 1.089631 0.985656 0.914413 0.880632 0.779324
P_10 0.696622 0.665791 0.597198 0.545948 0.522541 0.516644
P_10 0.528060 0.557805 0.624571 0.727432 0.780434 0.794613
P_10 0.897227 1.040119 1.087802 1.166447 1.179473 1.329432
P_10 1.266665 1.328321 1.402708 1.337977 1.290615 1.305565
P_10 1.211265 1.178306 1.204106 1.127181 1.157769 1.023989
P_10 1.147588 1.088310 1.015805 1.036286 1.040003 1.113026
P_10 1.111288 1.043078 1.075624 1.196602 1.147080 1.202980
P_10 1.202011 1.082095 0.979908 1.001289 0.927187 0.809913
P_10 0.816379 0.646161 0.618151 0.569044 0.548492 0.508354
P_10 0.510017 0.558001 0.523437 0.642120 0.713258 0.841991
P_10 0.929241 1.060171 1.044511 1.101935 1.202474 1.344576
P_10 1.291133 1.296495 1.333458 1.405516 1.246469 1.312244
P_10 1.263870 1.147623 1.194370 1.079813 1.109216 1.050349
P_10 0.948621 0.971016 1.029575 1.062044 1.005783 1.036787
P_10 1.197002 1.182838 1.223227 1.203888 1.149385 1.246343
P_10 1.064080 1.060273 1.143861 1.088622 0.936328 0.939261
P_10 0.746517 0.748196 0.586817 0.602751 0.556482 0.598724
P_10 0.529900 0.523225 0.580412 0.711755 0.719643 0.912813
P_10 1.040745 1.070563 1.241310 1.239532 1.432445 1.491850
P_10 1.460428 1.444917 1.424731 1.360709 1.557200 1.342989
P_10 1.413681 1.173477 1.212634 1.245551 1.139383 1.106912
P_10 1.146429 1.078288 1.156548 1.179653 1.075190 1.205823
P_10 1.050695 1.079082 1.164490 1.135384 1.160211 1.262616
P_10 1.094866 1.141554 1.051483 0.919406 0.919218 0.895524
P_10 0.794467 0.827073 0.694850 0.712725 0.619663 0.572246
P_10 0.563876 0.558294 0.630433 0.583245 0.664633 0.701634
P_10 0.817096 0.768657 0.870638 1.042349 1.012735 1.145713
P_10 1.230873 1.247645 1.213133 1.337664 1.207934 1.305415
P_10 1.184818 1.212585 1.090526 1.124775 1.139972 1.168525
P_10 1.103353 1.190214 1.126768 1.108509 1.111145 1.225930
P_10 1.170955 0.996875 1.126368 1.116799 1.049344 1.009260
P_10 1.076780 0.944849 0.867954 0.926187 0.824964 0.782910
P_10 0.798048 0.677911 0.626318 0.602327 0.592784 0.569207
P_10 0.559072 0.560987 0.537348 0.556042 0.566330 0.657406
P_10 0.649402 0.707345 0.785866 0.800357 0.851515 1.000925
P_10 1.035368 1.105318 1.177078 1.176611 1.226776 1.206065
P_10 1.159996 1.249576 1.184856 1.122934 1.079146 1.026709
P_10 1.120862 1.065677 1.140932 0.934953 1.060502 1.089194
P_10 1.143684 1.044071 1.107130 1.152541 1.109905 1.031565
P_10 1.131914 0.935919 1.033154 0.928512 0.915050 0.835070
P_10 0.733405 0.748359 0.656265 0.586771 0.497257 0.438604
P_10 0.501349 0.555553 0.545778 0.645615 0.701018 0.846526
P_10 0.900656 0.969308 0.986325 1.194224 1.140018 1.332303
P_10 1.231884 1.443513 1.374275 1.438999 1.477556 1.473530
P_10 1.221406 1.133832 1.130699 1.183061 1.095378 1.058521
P_10 1.011434 0.981263 0.984768 1.007792 1.026862 1.093131
P_10 1.153769 1.043791 1.103364 1.213709 1.234128 1.092044
P_10 1.203610 1.135048 1.115972 0.979147 0.904590 0.895457
P_10 0.770786 0.753718 0.627477 0.605607 0.560003 0.548242
P_10 0.561494 0.565371 0.588714 0.678362 0.697959 0.843699
P_10 0.953482 1.035381 1.045937 1.107432 1.327392 1.289992
P_10 1.303644 1.445788 1.337155 1.401957 1.316271 1.347343
P_10 1.240142 1.234028 1.122324 1.099849 1.201755 1.029695
P_10 1.063047 1.051753 1.067099 1.071756 1.157951 1.087461
P_10 1.068506 1.199674 1.156078 1.218422 1.121263 1.252809
P_10 1.244750 1.084767 1.089071 0.981926 0.966601 0.805089
P_10 0.775558 0.692575 0.578130 0.563544 0.487339 0.522378
P_10 0.505574 0.504671 0.631592 0.657703 0.691116 0.818116
P_10 0.869954 1.042129 1.079909 1.127244 1.172187 1.267048
P_10 1.257023 1.210143 1.295846 1.257800 1.390209 1.317408
P_10 1.207581 1.281420 1.199777 1.134556 1.159421 1.141482
P_10 1.105985 1.001465 1.136441 1.132739 1.165301 1.100431
P_10 1.084995 1.134247 1.220948 1.248498 1.159639 1.199144
P_10 1.220081 1.209211 1.086967 1.076752 0.835416 0.873132
P_10 0.751720 0.737533 0.586006 0.576915 0.569718 0.541954
P_10 0.540609 0.540106 0.565461 0.705275 0.740410 0.825002
P_10 0.876214 1.034461 1.083921 1.267696 1.231598 1.200948
P_10 1.254207 1.304440 1.236446 1.331730 1.214311 1.225366
P_10 1.308971 1.126347 1.279417 1.029473 1.053684 1.120466
P_10 1.096912 1.021252 0.929266 1.162153 0.966928 1.093530
P_10 1.146128 1.097755 1.202859 1.230819 1.323373 1.164271
P_10 1.245181 1.152597 1.190121 1.004315 0.937556 0.867529
P_10 0.771152 0.694620 0.719432 0.584931 0.540505 0.553938
P_10 0.521806 0.551670 0.657762 0.676935 0.729304 0.988109
P_10 1.110400 1.046529 1.168648 1.214029 1.477710 1.473442
P_10 1.598691 1.593427 1.485688 1.453017 1.472620 1.312259
P_10 1.322191 1.365203 1.244684 1.233384 1.112814 1.145805
P_10 1.212559 1.117616 1.200779 1.103718 1.156522 1.229247
P_10 1.109944 1.167634 1.152505 1.243076 1.198338 1.129564
P_10 1.177332 1.076747 1.050410 0.945305 0.967109 0.905761
P_10 0.807398 0.810607 0.696837 0.649227 0.621691 0.572043