; Filename: networks/Net1.inp
; WNTR: 0.1.6
; Created: 2019-04-09 13:08:31
[TITLE]
EPANET Example Network 1
A simple example of modeling chlorine decay. Both bulk and
wall reactions are included.

[JUNCTIONS]
;ID                      Elevation       Demand Pattern                 
 10                               710               0                            ;
 11                               710               0                            ;
 12                               700               0                            ;
 13                               695               0                            ;
 21                               700               0                            ;
 22                               695               0                            ;
 23                               690               0                            ;
 31                               700               0                            ;
 32                               710               0                            ;

[RESERVOIRS]
;ID                                   Head                  Pattern
 9                                800                            ;

[TANKS]
;ID                              Elevation           Init Level            Min Level            Max Level             Diameter           Min Volume Volume Curve        
 2                                850             120             100             150            50.5               0                        ;

[PIPES]
;ID                   Node1                Node2                              Length             Diameter            Roughness           Minor Loss               Status
 10                   10                   11                             10530              18             100               0                 Open   ;
 11                   11                   12                              5280              14             100               0                 Open   ;
 12                   12                   13                              5280              10             100               0                 Open   ;
 21                   21                   22                              5280              10             100               0                 Open   ;
 22                   22                   23                              5280              12             100               0                 Open   ;
 31                   31                   32                              5280               6             100               0                 Open   ;
 110                  2                    12                               200              18             100               0                 Open   ;
 111                  11                   21                              5280              10             100               0                 Open   ;
 112                  12                   22                              5280              12             100               0                 Open   ;
 113                  13                   23                              5280               8             100               0                 Open   ;
 121                  21                   31                              5280               8             100               0                 Open   ;
 122                  22                   32                              5280               6             100               0                 Open   ;

[PUMPS]
;ID                   Node1                Node2                Properties          
 9                    9                    10                   HEAD     1                      ;

[VALVES]
;ID                   Node1                Node2                            Diameter Type              Setting           Minor Loss

[TAGS]
;type      name       tag       

[DEMANDS]
;ID        Demand     Pattern   
10         0.0        P_10      
11         150.0      P_11      
12         150.0      P_12      
13         100.0      P_13      
21         150.0      P_21      
22         200.0      P_22      
23         150.0      P_23      
31         100.0      P_31      
32         100.0      P_32      

[STATUS]
;ID        Setting   
[PATTERNS]
;ID        Multipliers

1 1.000000 1.200000 1.400000 1.600000 1.400000 1.200000
1 1.000000 0.800000 0.600000 0.400000 0.600000 0.800000

P_10 0.538242 0.481313 0.434494 0.338129 0.341356 0.313579
P_10 0.300036 0.341387 0.382772 0.483438 0.540705 0.668223
P_10 0.700436 0.866647 0.952505 1.010320 1.161824 1.267210
P_10 1.264961 1.290573 1.316143 1.441330 1.236787 1.378960
P_10 1.230837 1.255269 1.063528 1.112034 1.076598 1.002978
P_10 0.901945 0.858284 0.915844 0.979277 0.895418 0.988938
P_10 0.956448 1.072492 1.031696 1.087256 1.046875 1.140403
P_10 1.079267 1.038623 1.004662 0.858309 0.759219 0.720329
P_10 0.570717 0.563626 0.448913 0.380815 0.311184 0.349355
P_10 0.340750 0.405470 0.433696 0.537404 0.630912 0.651011
P_10 0.870703 0.867049 1.000151 1.146381 1.139727 1.178317
P_10 1.276339 1.282267 1.119761 1.224615 1.240035 1.250678
P_10 1.157218 1.207231 1.041631 1.045172 1.051253 1.013961
P_10 0.981115 0.982649 0.991204 0.988943 0.991535 1.049628
P_10 1.115052 1.079380 1.129457 1.184650 1.185813 1.077189
P_10 1.023000 1.097377 0.950172 0.846170 0.816833 0.722282
P_10 0.646608 0.521430 0.411949 0.361529 0.355517 0.335446
P_10 0.338895 0.380699 0.433327 0.520506 0.578861 0.683149
P_10 0.872422 0.975671 0.942405 1.098620 1.204081 1.270915
P_10 1.121110 1.197229 1.266867 1.353553 1.223300 1.249900
P_10 1.259027 1.179749 1.074304 1.173935 1.064319 1.064625
P_10 1.098656 1.033395 1.002311 0.984180 0.996949 0.995107
P_10 1.062871 1.059012 1.023460 1.132429 1.111169 1.132007
P_10 1.043006 1.058151 0.960655 0.882093 0.815862 0.664349
P_10 0.568214 0.535742 0.443399 0.384108 0.332103 0.348707
P_10 0.332206 0.360877 0.433714 0.521958 0.652451 0.748741
P_10 0.847906 0.991023 1.068917 1.175119 1.187718 1.128090
P_10 1.328783 1.271107 1.311230 1.285639 1.335492 1.209812
P_10 1.224512 1.043296 1.147314 1.057420 1.031907 1.055555
P_10 1.034036 1.080417 1.030997 1.036210 1.030652 1.150632
P_10 1.109661 1.051021 1.051901 1.084960 1.100717 1.081192
P_10 1.062757 1.064114 1.019880 0.933085 0.791738 0.735893
P_10 0.666632 0.544208 0.479719 0.400381 0.377690 0.358610
P_10 0.361811 0.417304 0.498783 0.574647 0.729123 0.760693
P_10 0.914930 1.121686 1.121733 1.265770 1.331380 1.407575
P_10 1.450265 1.340906 1.376250 1.357660 1.300780 1.361651
P_10 1.258518 1.276741 1.277453 1.164759 1.000020 1.047489
P_10 1.045289 0.931483 1.043117 0.957352 1.068352 1.118254
P_10 1.116949 1.075701 1.145458 1.053031 1.054615 1.063047
P_10 0.992714 1.062419 0.946870 0.894064 0.736799 0.764107
P_10 0.642944 0.558946 0.545274 0.508088 0.428587 0.406169
P_10 0.395900 0.400190 0.403695 0.461387 0.501881 0.573494
P_10 0.640046 0.727033 0.812365 0.939136 0.980941 1.154474
P_10 1.025235 1.174293 1.173737 1.220086 1.230900 1.180434
P_10 1.203628 1.228392 1.135342 1.125238 1.014304 1.067604
P_10 0.990150 0.919099 0.999407 1.088369 1.129469 1.064204
P_10 1.073743 0.992206 1.098249 1.052380 1.017122 0.963811
P_10 0.889797 0.861476 0.813159 0.715610 0.694575 0.629271
P_10 0.563232 0.541747 0.496493 0.432787 0.423402 0.422344
P_10 0.343041 0.365714 0.385390 0.435325 0.396688 0.496313
P_10 0.529836 0.580491 0.643273 0.693856 0.790668 0.864044
P_10 1.111506 1.009202 0.996164 1.021202 1.182631 1.114947
P_10 1.075253 1.042535 1.081567 1.071998 0.968249 1.002282
P_10 0.977982 0.907151 0.952310 0.920103 0.862239 0.992910
P_10 0.957867 1.083557 0.988608 0.953473 1.064270 1.027356
P_10 0.994086 0.921172 0.743167 0.816456 0.719690 0.642299
P_10 0.581778 0.476902 0.391829 0.344286 0.346256 0.302632
P_10 0.343182 0.349635 0.412813 0.462286 0.579070 0.606024
P_10 0.745767 0.812582 0.958418 1.107944 1.246010 1.127087
P_10 1.238140 1.276609 1.356830 1.403583 1.344343 1.362063
P_10 1.308290 1.203071 1.181604 1.131543 1.000290 0.998943
P_10 0.884961 0.874355 0.894312 0.850313 0.901439 0.879897
P_10 1.041131 1.119080 1.021168 1.026035 1.115135 1.133948
P_10 1.114562 1.028730 0.911219 0.889060 0.785404 0.681173
P_10 0.631009 0.561681 0.457118 0.427405 0.375533 0.348843
P_10 0.346463 0.385715 0.426613 0.481308 0.567208 0.740016
P_10 0.802047 0.927714 1.019991 1.086742 1.150139 1.271737
P_10 1.236135 1.280336 1.348312 1.413679 1.388535 1.188608
P_10 1.237133 1.218372 1.018454 0.998286 1.016138 0.937307
P_10 0.893117 0.907193 0.949495 0.961466 1.048950 1.038214
P_10 1.118125 1.099488 1.155832 1.276959 1.141802 1.220626
P_10 1.009935 0.996205 0.902055 0.867208 0.802380 0.719343
P_10 0.591326 0.502844 0.424889 0.340593 0.354958 0.343919
P_10 0.350477 0.392403 0.456011 0.525557 0.583955 0.703572
P_10 0.802911 0.941523 1.066556 1.219858 1.162314 1.318402
P_10 1.152735 1.391599 1.352268 1.249113 1.247710 1.332360
P_10 1.345227 1.083271 1.209806 1.201250 1.080685 1.022726
P_10 1.030128 0.993134 0.960761 1.023908 1.017884 1.110398
P_10 1.018670 1.226989 1.088087 1.088903 1.214655 1.068575
P_10 1.116808 1.029146 0.977129 0.928082 0.819314 0.732597
P_10 0.644893 0.561196 0.457407 0.377232 0.330930 0.328960
P_10 0.377779 0.395325 0.425767 0.472984 0.678702 0.768174
P_10 0.834769 0.896441 1.137344 1.239383 1.213770 1.322976
P_10 1.194454 1.462741 1.216629 1.403029 1.248964 1.219569
P_10 1.159633 1.099723 1.040718 1.177900 0.975998 0.986939
P_10 0.926743 0.948905 1.007126 1.077356 0.944836 1.048137
P_10 1.139599 1.109499 1.120647 1.086858 1.133924 1.075194
P_10 1.052108 1.032891 0.949485 0.881441 0.833992 0.775413
P_10 0.671489 0.553956 0.474669 0.423003 0.384039 0.362568
P_10 0.417075 0.414441 0.467124 0.585097 0.701772 0.853518
P_10 0.858865 1.080379 1.175170 1.261600 1.394260 1.440599
P_10 1.413886 1.443238 1.502835 1.485370 1.364487 1.434528
P_10 1.278646 1.217948 1.234086 1.175888 1.044767 1.073761
P_10 0.945698 1.052935 1.102026 1.085077 1.087197 1.021159
P_10 0.994540 1.025649 1.198402 1.080306 1.019258 1.139593
P_10 1.029330 1.052285 0.903675 0.888931 0.835321 0.690953
P_10 0.713865 0.565354 0.569100 0.485541 0.463794 0.409244
P_10 0.366010 0.405062 0.364633 0.429144 0.536894 0.569922
P_10 0.615064 0.707149 0.842184 0.932569 1.012704 1.074677
P_10 1.119154 1.244735 1.204629 1.187637 1.285072 1.168965
P_10 1.218934 1.195482 1.206530 1.142837 1.196282 1.073264
P_10 1.124870 1.063038 1.021509 1.152941 1.156490 1.054698
P_10 1.088875 1.157915 1.141104 1.116741 0.997959 0.948883
P_10 0.930662 0.809020 0.804507 0.728415 0.703412 0.641503
P_10 0.594640 0.547632 0.516338 0.453528 0.472862 0.400159
P_10 0.403938 0.399973 0.409895 0.413375 0.435759 0.496239
P_10 0.582991 0.610151 0.687844 0.730378 0.811917 0.920284
P_10 0.944385 0.937923 1.113678 0.989525 1.116976 1.224023
P_10 1.140890 1.107028 1.143022 1.082476 1.033026 0.985259
P_10 1.023255 0.889812 0.931538 0.957066 0.989611 0.991128
P_10 0.942863 1.132582 1.019711 1.008974 0.997941 1.079408
P_10 1.015303 0.991262 0.938873 0.800996 0.633636 0.678031
P_10 0.559006 0.533298 0.399095 0.363567 0.329093 0.294830
P_10 0.349253 0.344923 0.453404 0.482018 0.551786 0.644174
P_10 0.820363 0.866358 0.970522 1.099879 1.189608 1.282797
P_10 1.325979 1.366335 1.382693 1.394930 1.500261 1.241164
P_10 1.354512 1.212121 1.128397 1.047764 1.041423 0.934073
P_10 0.940900 0.966657 0.917652 0.967023 0.987714 0.947907
P_10 0.983472 0.989710 1.095147 1.006333 1.084785 1.048204
P_10 1.019844 1.198448 1.016686 0.900512 0.788377 0.729765
P_10 0.612818 0.597022 0.450145 0.420313 0.381392 0.334903
P_10 0.348677 0.363177 0.445108 0.496564 0.573589 0.711306
P_10 0.810970 0.840511 0.987970 1.014914 1.205809 1.208448
P_10 1.244789 1.369188 1.321532 1.313147 1.366772 1.240403
P_10 1.244850 1.219904 1.119471 1.100656 1.005851 0.963248
P_10 0.976943 0.990037 0.914851 0.993967 1.027398 1.013022
P_10 1.109968 1.160437 1.237425 1.255129 1.162010 1.075862
P_10 1.121415 0.980983 0.915318 0.898609 0.827724 0.769152
P_10 0.573263 0.524217 0.456796 0.394953 0.360583 0.372710
P_10 0.338846 0.416417 0.417182 0.584970 0.694867 0.749227
P_10 0.778376 0.940984 1.078361 1.107473 1.142939 1.247091
P_10 1.302877 1.332178 1.358297 1.402446 1.344192 1.272875
P_10 1.205805 1.246393 1.226560 1.113761 1.080535 1.014494
P_10 1.157117 0.969946 0.996282 1.039400 0.997487 1.140077
P_10 1.074139 1.045347 1.214072 1.141105 1.199044 1.165801
P_10 1.107588 1.080057 0.965471 0.929172 0.848409 0.698239
P_10 0.633039 0.536402 0.457236 0.392996 0.399862 0.348761
P_10 0.354290 0.398787 0.426077 0.447375 0.615564 0.685591
P_10 0.827923 0.944685 1.084570 1.092897 1.203014 1.147462
P_10 1.348677 1.314655 1.158248 1.326796 1.427765 1.217914
P_10 1.182446 1.205580 1.111346 1.123217 0.993021 1.038198
P_10 0.937819 1.122702 1.025417 0.922251 1.021580 1.032349
P_10 1.063589 1.084363 1.189368 1.165391 1.056520 1.137451
P_10 1.110684 1.018135 0.935799 0.916265 0.890989 0.703877
P_10 0.658831 0.578131 0.449319 0.463913 0.401521 0.373989
P_10 0.350104 0.442342 0.498498 0.615976 0.691322 0.758747
P_10 1.000471 1.106803 1.212627 1.372211 1.336503 1.377103
P_10 1.459235 1.574559 1.514894 1.450222 1.596100 1.425499
P_10 1.260338 1.324332 1.199649 1.254284 1.102887 1.178017
P_10 1.114979 1.077150 1.051424 1.107322 1.104329 1.121408
P_10 1.181622 1.044029 1.223426 1.099255 1.058497 1.017296
P_10 0.959527 0.971982 1.021040 0.896432 0.838562 0.801508
P_10 0.724803 0.698010 0.513442 0.502154 0.478574 0.429575
P_10 0.387249 0.431425 0.407170 0.528871 0.539093 0.630424
P_10 0.602952 0.768605 0.900203 0.847462 0.994586 1.094873
P_10 1.037521 1.198154 1.266708 1.308588 1.264247 1.310340
P_10 1.181274 1.216705 1.141797 1.094652 1.172340 1.072886
P_10 1.111309 1.075104 1.068663 1.117003 1.197842 1.202030
P_10 1.040760 1.088774 1.133860 1.052697 1.054824 1.010610
P_10 0.925463 0.965358 0.809086 0.795630 0.714678 0.623606
P_10 0.614365 0.520620 0.508583 0.475569 0.436305 0.443525
P_10 0.415459 0.408141 0.390087 0.417907 0.441032 0.486429
P_10 0.532825 0.633141 0.722076 0.805099 0.889627 0.973879
P_10 0.916611 1.103495 1.078230 1.122315 1.036835 1.157235
P_10 1.137701 1.146801 1.082421 1.053102 0.965837 1.035563
P_10 0.935767 0.960240 0.896669 0.965071 1.064883 1.009703
P_10 0.973949 0.982007 1.034079 1.053817 1.040637 1.078928
P_10 1.000047 0.951141 0.898853 0.909003 0.748230 0.642776
P_10 0.546400 0.496916 0.447665 0.400978 0.361826 0.347183
P_10 0.349110 0.336764 0.410175 0.485400 0.571710 0.716779
P_10 0.785422 0.958844 0.988075 1.129986 1.171809 1.289437
P_10 1.390782 1.382364 1.372378 1.480376 1.331361 1.382411
P_10 1.358690 1.232103 1.128430 1.145965 1.065600 0.945913
P_10 1.036321 0.924296 0.916965 0.892650 0.915878 1.024041
P_10 0.966563 1.080547 1.159930 1.125117 1.091105 1.024141
P_10 1.156918 1.078364 1.006937 0.988243 0.761273 0.755682
P_10 0.636013 0.603463 0.460077 0.391722 0.394114 0.377849
P_10 0.353484 0.396782 0.454962 0.531567 0.613952 0.702226
P_10 0.805630 0.872869 0.952282 0.981849 1.116276 1.265213
P_10 1.242705 1.351840 1.291951 1.521573 1.284147 1.348579
P_10 1.215286 1.129579 1.167990 1.026342 0.961664 0.985829
P_10 0.990022 0.999356 1.000029 0.975819 1.059238 1.108266
P_10 1.115986 1.042320 1.127002 1.131543 1.213138 1.159442
P_10 1.154593 1.109185 0.959793 0.869378 0.827592 0.744817
P_10 0.610231 0.463094 0.401835 0.378051 0.384299 0.352376
P_10 0.385537 0.424297 0.418497 0.477418 0.621141 0.742621
P_10 0.841875 0.953148 1.039560 1.155030 1.182962 1.333197
P_10 1.355343 1.413396 1.447514 1.307899 1.317770 1.288588
P_10 1.246987 1.270749 1.146404 1.202919 1.175826 1.198037
P_10 1.044699 1.000696 1.005471 1.059928 1.080136 1.086809
P_10 1.096734 1.126075 1.117893 1.162725 1.185406 1.048786
P_10 1.224233 1.062262 0.988527 0.977859 0.829024 0.798277
P_10 0.652128 0.590977 0.477028 0.404174 0.389630 0.363406
P_10 0.391590 0.390980 0.463291 0.557585 0.629862 0.747453
P_10 0.838748 0.947224 1.019259 1.338271 1.247671 1.258748
P_10 1.328500 1.387664 1.423850 1.399895 1.271781 1.202271
P_10 1.256775 1.196190 1.217313 1.093289 1.176215 0.975657
P_10 1.022737 1.194543 0.975347 1.066601 1.075802 1.066340
P_10 1.139867 1.128238 1.111797 1.165927 1.143044 1.090424
P_10 1.123856 1.072893 0.983962 0.946247 0.817021 0.756835
P_10 0.672874 0.573630 0.496033 0.480737 0.404896 0.395345
P_10 0.401249 0.458632 0.494251 0.579286 0.690639 0.764389
P_10 0.981687 1.017682 1.307095 1.334122 1.375643 1.466059
P_10 1.555876 1.667195 1.582914 1.582414 1.463813 1.322151
P_10 1.467763 1.319543 1.175619 1.143998 1.104020 1.052032
P_10 1.047337 1.170270 1.128616 1.208766 1.100047 1.066389
P_10 1.105923 1.128719 1.193219 1.096248 1.086130 1.102649
P_10 1.087253 1.042141 0.966256 0.878480 0.758291 0.708974
P_10 0.711492 0.627366 0.561443 0.508166 0.463938 0.463064
P_10 0.421130 0.412463 0.409936 0.455309 0.537828 0.627793
P_10 0.638308 0.810295 0.913696 0.940827 1.080742 1.165690
P_10 1.183176 1.230642 1.309500 1.322530 1.225533 1.247728
P_10 1.217139 1.281258 1.131317 1.216441 1.203323 1.045148
P_10 1.136700 1.098146 1.105638 1.106944 1.069557 1.104907
P_10 1.183860 1.117588 1.045328 1.046292 1.082558 0.982881
P_10 0.912867 0.953434 0.868255 0.748931 0.754359 0.688738
P_10 0.607305 0.585387 0.515328 0.450280 0.410627 0.432695
P_10 0.423442 0.363590 0.411772 0.416658 0.448884 0.524720
P_10 0.538510 0.605753 0.712144 0.828633 0.881923 0.951358
P_10 1.034489 1.213683 1.065805 1.164436 1.157155 1.101974
P_10 1.121947 1.188664 1.047897 1.105052 0.946176 1.003536
P_10 0.967819 0.941777 0.999720 1.098545 0.951897 1.016894
P_10 1.098607 1.082130 1.135139 1.220423 1.031626 1.092640
P_10 0.946554 1.042831 0.889046 0.837912 0.757034 0.705229
P_10 0.586984 0.518131 0.445020 0.391612 0.328978 0.317073
P_10 0.347745 0.366544 0.457685 0.527436 0.601173 0.764596
P_10 0.758463 0.967308 0.964518 1.200438 1.274043 1.314919
P_10 1.450938 1.473681 1.428979 1.345007 1.377185 1.350208
P_10 1.301980 1.305140 1.253172 1.088086 1.001961 1.014743
P_10 0.973697 1.022302 0.918891 0.973432 1.086478 1.151169
P_10 0.976870 1.130971 1.117269 1.127242 1.175642 1.290256
P_10 1.206351 1.007544 1.003105 0.948198 0.814851 0.732898
P_10 0.646463 0.583635 0.496942 0.416343 0.353268 0.324573
P_10 0.381829 0.387635 0.445410 0.494213 0.609498 0.692644
P_10 0.830217 0.931732 1.060643 1.063735 1.161146 1.346560
P_10 1.359082 1.324757 1.363055 1.324812 1.326925 1.227717
P_10 1.284203 1.197627 1.215821 1.204742 1.178120 1.073552
P_10 1.051777 0.978616 0.977048 1.109273 1.103564 1.126106
P_10 1.131315 1.107206 1.198183 1.137462 1.267304 1.215444
P_10 1.215446 1.026873 0.984698 0.883490 0.804904 0.767473
P_10 0.630069 0.519509 0.516730 0.397164 0.381200 0.374776
P_10 0.374114 0.428303 0.496679 0.580257 0.599748 0.767276
P_10 0.884889 1.045148 1.043068 1.197712 1.287643 1.297395
P_10 1.219137 1.288973 1.343876 1.244634 1.407561 1.349591
P_10 1.285883 1.153743 1.155918 1.177035 1.135154 1.092283
P_10 1.048940 1.120735 1.060218 1.133614 1.056988 1.139546
P_10 1.190357 1.176638 1.192077 1.205299 1.229330 1.296862
P_10 1.164180 1.049034 1.077456 0.849360 0.866891 0.714163
P_10 0.674433 0.560032 0.456970 0.409437 0.371282 0.350841
P_10 0.393144 0.401721 0.470917 0.516218 0.649642 0.774989
P_10 0.830494 1.037498 1.065302 1.249790 1.136594 1.345880
P_10 1.475913 1.579345 1.361936 1.361002 1.363157 1.313119
P_10 1.289323 1.173359 1.222088 1.155566 1.149741 1.026175
P_10 1.061994 1.027151 1.103571 0.968569 1.034994 1.163456
P_10 1.211848 1.098154 1.143299 1.171326 1.171531 1.219959
P_10 1.107242 1.033133 0.981376 0.959780 0.846926 0.800038
P_10 0.704539 0.586209 0.512498 0.438018 0.441960 0.406426
P_10 0.388014 0.445563 0.514740 0.604015 0.717177 0.886038
P_10 0.997376 1.101790 1.089171 1.336455 1.499961 1.416185
P_10 1.457379 1.534022 1.609661 1.493945 1.655157 1.398546
P_10 1.671775 1.382152 1.162211 1.161686 1.248431 1.066413
P_10 1.126953 1.100470 1.176839 1.221395 1.155685 1.152459
P_10 1.098097 1.124116 1.202380 1.253615 1.215454 1.127210
P_10 1.118672 1.081751 0.995370 0.908098 0.863805 0.803497
P_10 0.716947 0.680637 0.558201 0.515715 0.484314 0.415753
P_10 0.439616 0.393390 0.445102 0.435027 0.549541 0.602574
P_10 0.692025 0.809646 0.908968 0.997043 1.054124 1.138266
P_10 1.098972 1.292217 1.286500 1.265232 1.375080 1.284342
P_10 1.329176 1.296922 1.135878 1.209816 1.154886 1.149189
P_10 1.144878 1.091906 1.137140 1.168841 1.123105 1.034646
P_10 1.188822 1.219655 1.214167 1.235459 0.997509 1.046817
P_10 0.926602 0.951422 0.947846 0.898641 0.761600 0.678774
P_10 0.591112 0.541159 0.547185 0.449076 0.473090 0.459950
P_10 0.424830 0.457628 0.427539 0.464764 0.478607 0.491162
P_10 0.567952 0.691351 0.635258 0.840223 0.920902 0.884800
P_10 0.993291 1.123652 1.212114 1.270004 1.121003 1.255746
P_10 1.172781 1.247451 1.177364 1.148517 1.105962 1.121804
P_10 1.064132 1.042371 0.978984 1.132917 1.061761 1.069767
P_10 1.146035 1.121258 1.137358 1.163356 1.048808 1.108209
P_10 1.032656 1.066595 0.883646 0.919870 0.770959 0.670406
P_10 0.613861 0.482494 0.438435 0.412614 0.369620 0.363491
P_10 0.363557 0.372500 0.426359 0.516146 0.590138 0.777242
P_10 0.804880 1.000544 1.034042 1.238168 1.263688 1.432295
P_10 1.449151 1.646743 1.431851 1.569638 1.515659 1.375801
P_10 1.358918 1.320519 1.226929 1.121954 1.182108 1.122950
P_10 1.057200 0.893313 1.006523 1.053992 1.008661 0.987876
P_10 1.033007 1.042661 1.070695 1.232017 1.121155 1.275505
P_10 1.113681 1.043859 0.984529 0.855956 0.869130 0.788121
P_10 0.665612 0.568473 0.452564 0.469462 0.406711 0.397313
P_10 0.392708 0.389102 0.460830 0.525248 0.635121 0.746283
P_10 0.836827 0.954995 1.035379 1.216489 1.126183 1.358931
P_10 1.313552 1.407482 1.359618 1.450870 1.438880 1.389593
P_10 1.292994 1.318326 1.229068 1.236108 1.162335 1.163085
P_10 1.048308 1.053701 1.037251 1.082327 1.098586 1.116813
P_10 1.163999 1.236157 1.163472 1.176460 1.284633 1.269778
P_10 1.148251 1.133869 1.032117 0.925821 0.924396 0.726380
P_10 0.646097 0.549597 0.453513 0.434633 0.404336 0.351215
P_10 0.390184 0.417737 0.497512 0.535025 0.723265 0.758163
P_10 0.882549 1.025824 1.125588 1.250330 1.346685 1.226184
P_10 1.378164 1.533620 1.369202 1.373866 1.493103 1.287503
P_10 1.313002 1.184300 1.189467 1.279393 1.247110 1.155759
P_10 1.148525 1.077888 1.046543 1.205145 1.167495 1.090597
P_10 1.168829 1.239102 1.110082 1.204532 1.252935 1.119588
P_10 1.210455 1.100166 1.100274 0.961665 0.794098 0.792801
P_10 0.680817 0.604185 0.522549 0.435487 0.419717 0.387331
P_10 0.417970 0.401748 0.506594 0.598016 0.696589 0.778466
P_10 0.936282 1.081039 1.069657 1.236908 1.235686 1.482111
P_10 1.384098 1.298879 1.325340 1.351212 1.535893 1.368751
P_10 1.108571 1.154407 1.167134 1.059424 1.084178 1.056553
P_10 1.054421 1.142594 1.080903 1.113176 1.069335 1.052405
P_10 1.139904 1.315142 1.198130 1.161480 1.179319 1.302791
P_10 1.077925 1.184305 1.044204 0.973745 0.873677 0.829847
P_10 0.634082 0.616418 0.503792 0.495455 0.409585 0.375942
P_10 0.402852 0.469134 0.532649 0.603911 0.709746 0.804524
P_10 0.965754 1.133066 1.168129 1.462566 1.453193 1.543163
P_10 1.620203 1.696655 1.619428 1.535379 1.497585 1.538067
P_10 1.462856 1.393196 1.367416 1.108534 1.148218 1.071582
P_10 1.175375 1.080307 1.114963 1.176398 1.170034 1.221413
P_10 1.151339 1.223126 1.172222 1.232140 1.151645 1.111305
P_10 1.100208 1.108868 0.998150 1.056038 0.950593 0.789869
P_10 0.754848 0.699137 0.540427 0.498839 0.448840 0.444904
P_10 0.447188 0.436032 0.449638 0.508910 0.593018 0.622262
P_10 0.706602 0.837306 0.842090 0.973159 1.005678 1.182052
P_10 1.300667 1.301826 1.306747 1.313129 1.374030 1.402711
P_10 1.274641 1.179279 1.357658 1.164755 1.289508 1.246005
P_10 1.192888 1.031563 1.237162 1.201860 1.076442 1.174825
P_10 1.241723 1.208844 1.189522 1.117269 1.078438 1.012152
P_10 1.004206 1.025850 0.868421 0.868008 0.791408 0.747795
P_10 0.691721 0.547079 0.549121 0.532880 0.446338 0.485469
P_10 0.433467 0.418819 0.425091 0.458063 0.485262 0.543900
P_10 0.625780 0.647477 0.746189 0.869364 0.900173 1.077016
P_10 1.167758 1.119125 1.130284 1.108770 1.125488 1.193012
P_10 1.236289 1.266317 1.068396 1.198499 1.117119 1.106677
P_10 1.103109 0.984856 1.089919 1.021740 1.044268 1.092728
P_10 1.061336 1.126930 1.120759 1.171386 1.168047 1.055947
P_10 1.078873 0.990242 0.911828 0.850799 0.772845 0.728731
P_10 0.580169 0.509076 0.459003 0.452549 0.370125 0.331284
P_10 0.364941 0.391950 0.418014 0.517487 0.639070 0.690095
P_10 0.805357 0.927741 1.091651 1.246844 1.257528 1.376746
P_10 1.590299 1.456432 1.540682 1.437946 1.463665 1.482527
P_10 1.495582 1.280119 1.285684 1.149195 1.107602 1.126882
P_10 0.985185 0.977805 1.021379 0.974661 1.014115 1.114932
P_10 1.076556 1.093300 1.111827 1.189851 1.229529 1.187386
P_10 1.142972 1.113880 0.981080 1.040641 0.921021 0.729603
P_10 0.684426 0.594180 0.514042 0.484289 0.407642 0.378016
P_10 0.365055 0.438469 0.498312 0.520764 0.671043 0.726556
P_10 0.918246 1.054973 1.026475 1.279828 1.270149 1.383937
P_10 1.376457 1.439995 1.411372 1.324067 1.479174 1.389473
P_10 1.380748 1.222291 1.108420 1.152523 1.126217 1.080963
P_10 0.978533 1.056580 1.039189 1.082469 1.169806 1.301098
P_10 1.141302 1.249026 1.268775 1.256593 1.231447 1.141114
P_10 1.147483 1.120327 1.099223 0.973692 0.809848 0.775511
P_10 0.596121 0.551966 0.480119 0.426745 0.382837 0.367211
P_10 0.399354 0.422854 0.509479 0.578774 0.637542 0.784807
P_10 0.960270 1.002967 1.125876 1.147344 1.207995 1.455705
P_10 1.400663 1.554673 1.436508 1.404016 1.394736 1.471496
P_10 1.364760 1.359239 1.256670 1.205756 1.152693 1.059595
P_10 1.082251 1.174763 1.079020 1.059905 1.160682 1.239154
P_10 1.209658 1.096025 1.164116 1.249592 1.179672 1.134764
P_10 1.183866 1.122306 1.055914 1.037201 0.853613 0.805416
P_10 0.658141 0.508603 0.500552 0.434560 0.386726 0.409563
P_10 0.403086 0.439919 0.441125 0.594589 0.729070 0.761679
P_10 0.945790 1.103228 1.263887 1.271466 1.216869 1.333500
P_10 1.449830 1.594343 1.362249 1.492455 1.374843 1.435147
P_10 1.334604 1.215295 1.110217 1.096115 1.100914 1.129876
P_10 1.087103 0.981999 1.076208 1.058110 1.124032 1.096622
P_10 1.158412 1.118087 1.222827 1.219331 1.267490 1.254012
P_10 1.251629 1.104073 1.069503 0.972121 0.884432 0.791130
P_10 0.725532 0.569345 0.469764 0.443613 0.437453 0.415079
P_10 0.434483 0.472000 0.482163 0.626403 0.701878 0.846551
P_10 0.975787 1.120802 1.338066 1.384059 1.378329 1.581498
P_10 1.393729 1.683154 1.598298 1.568284 1.559694 1.579816
P_10 1.394024 1.437253 1.382640 1.177471 1.157179 1.137624
P_10 1.207099 1.206688 1.205391 1.118867 1.348841 1.223172
P_10 1.278917 1.379474 1.167587 1.188003 1.239216 1.143798
P_10 1.145352 1.105644 1.065330 0.927810 0.839812 0.770702
P_10 0.796730 0.653229 0.579647 0.567497 0.521859 0.465039
P_10 0.419606 0.410094 0.436112 0.500774 0.595840 0.633510
P_10 0.688187 0.786854 0.892659 1.087746 1.119540 1.238816
P_10 1.218931 1.346001 1.398713 1.484671 1.568090 1.376512
P_10 1.404923 1.350642 1.246899 1.181603 1.284398 1.140258
P_10 1.177303 1.145690 1.198051 1.175562 1.225854 1.124996
P_10 1.148291 1.134966 1.187245 1.139109 1.111806 1.122227
P_10 1.002614 1.015520 0.905075 0.764514 0.815026 0.710742
P_10 0.645293 0.605930 0.585090 0.495680 0.471422 0.433301
P_10 0.446204 0.459360 0.432405 0.470620 0.455579 0.500199
P_10 0.615307 0.649518 0.769539 0.845894 0.991939 0.967945
P_10 1.072757 1.130134 1.085707 1.289889 1.216653 1.274958
P_10 1.265627 1.217726 1.211713 1.073685 1.118728 1.042847
P_10 1.054600 0.963655 1.017882 1.057581 1.024503 1.067991
P_10 1.051172 1.196725 1.206735 1.109715 1.139739 1.059809
P_10 1.152087 1.058018 0.945325 0.901816 0.810993 0.709389
P_10 0.675708 0.533056 0.498999 0.404332 0.367586 0.374997
P_10 0.396784 0.380336 0.461427 0.524769 0.658893 0.717053
P_10 0.873529 0.898348 1.135683 1.251391 1.430935 1.383930
P_10 1.560137 1.500870 1.628742 1.585082 1.604233 1.431376
P_10 1.352881 1.374179 1.151730 1.160546 1.198485 1.000782
P_10 1.055938 1.009043 1.072799 0.954264 1.059369 1.063961
P_10 1.077272 1.128061 1.138378 1.175989 1.256353 1.296538
P_10 1.228583 1.166154 1.065618 0.954946 0.929006 0.775585
P_10 0.676798 0.598119 0.554757 0.460963 0.397271 0.401645
P_10 0.418320 0.433179 0.458265 0.604010 0.634033 0.742202
P_10 0.890319 0.929091 1.075346 1.183819 1.255719 1.401040
P_10 1.456197 1.685678 1.465420 1.559356 1.403447 1.336088
P_10 1.352392 1.315208 1.200006 1.223550 1.151648 1.151673
P_10 1.043734 1.087986 1.161624 1.102098 1.096221 1.259095
P_10 1.103898 1.110453 1.268614 1.266396 1.203334 1.344862
P_10 1.277310 1.257207 1.196251 1.027972 0.939133 0.771261
P_10 0.645582 0.515224 0.471726 0.415846 0.392989 0.375743
P_10 0.400876 0.425006 0.530093 0.626631 0.678552 0.833572
P_10 0.977204 1.018741 1.002980 1.197395 1.341690 1.338223
P_10 1.205753 1.545021 1.438441 1.532282 1.326249 1.389977
P_10 1.363336 1.272081 1.233668 1.215951 1.234799 1.141267
P_10 1.088094 1.119808 1.071963 1.067006 1.220418 1.241700
P_10 1.243363 1.285174 1.335162 1.374649 1.261444 1.368542
P_10 1.138260 1.197197 1.252762 0.929615 0.957214 0.826617
P_10 0.700706 0.638271 0.532337 0.419832 0.421137 0.377422
P_10 0.419665 0.436978 0.469541 0.574472 0.672601 0.778590
P_10 0.951789 1.069590 1.154004 1.160204 1.298521 1.345825
P_10 1.467751 1.381719 1.501698 1.429542 1.381074 1.364216
P_10 1.241502 1.249066 1.247252 1.162474 1.168322 1.189308
P_10 1.142396 1.136001 1.177007 1.093718 1.189779 1.298021
P_10 1.184055 1.252366 1.303574 1.235664 1.297729 1.166237
P_10 1.178619 1.119705 1.114298 1.000923 0.986570 0.791326
P_10 0.768544 0.634366 0.531198 0.487643 0.418856 0.414919
P_10 0.438077 0.487868 0.501714 0.634779 0.777845 0.984264
P_10 0.975806 1.167007 1.438490 1.415717 1.435358 1.725594
P_10 1.526701 1.741201 1.653844 1.693652 1.700580 1.351078
P_10 1.557735 1.274174 1.368283 1.231458 1.290385 1.166690
P_10 1.190068 1.187107 1.271941 1.115957 1.217304 1.142947
P_10 1.191459 1.298200 1.227693 1.329919 1.190314 1.227053
P_10 1.167616 1.119350 1.117113 0.939528 0.910683 0.806940
P_10 0.802329 0.727960 0.589616 0.564621 0.537539 0.450222