; Filename: networks/Net1.inp
; WNTR: 0.1.6
; Created: 2019-04-09 13:28:17
[TITLE]
EPANET Example Network 1
A simple example of modeling chlorine decay. Both bulk and
wall reactions are included.

[JUNCTIONS]
;ID                      Elevation       Demand Pattern                 
 10                               710               0                            ;
 11                               710               0                            ;
 12                               700               0                            ;
 13                               695               0                            ;
 21                               700               0                            ;
 22                               695               0                            ;
 23                               690               0                            ;
 31                               700               0                            ;
 32                               710               0                            ;

[RESERVOIRS]
;ID                                   Head                  Pattern
 9                                800                            ;

[TANKS]
;ID                              Elevation           Init Level            Min Level            Max Level             Diameter           Min Volume Volume Curve        
 2                                850             120             100             150            50.5               0                        ;

[PIPES]
;ID                   Node1                Node2                              Length             Diameter            Roughness           Minor Loss               Status
 10                   10                   11                             10530              18             100               0                 Open   ;
 11                   11                   12                              5280              14             100               0                 Open   ;
 12                   12                   13                              5280              10             100               0                 Open   ;
 21                   21                   22                              5280              10             100               0                 Open   ;
 22                   22                   23                              5280              12             100               0                 Open   ;
 31                   31                   32                              5280               6             100               0                 Open   ;
 110                  2                    12                               200              18             100               0                 Open   ;
 111                  11                   21                              5280              10             100               0                 Open   ;
 112                  12                   22                              5280              12             100               0                 Open   ;
 113                  13                   23                              5280               8             100               0                 Open   ;
 121                  21                   31                              5280               8             100               0                 Open   ;
 122                  22                   32                              5280               6             100               0                 Open   ;

[PUMPS]
;ID                   Node1                Node2                Properties          
 9                    9                    10                   HEAD     1                      ;

[VALVES]
;ID                   Node1                Node2                            Diameter Type              Setting           Minor Loss

[TAGS]
;type      name       tag       

[DEMANDS]
;ID        Demand     Pattern   
10         0.0        P_10      
11         150.0      P_11      
12         150.0      P_12      
13         100.0      P_13      
21         150.0      P_21      
22         200.0      P_22      
23         150.0      P_23      
31         100.0      P_31      
32         100.0      P_32      

[STATUS]
;ID        Setting   
[PATTERNS]
;ID        Multipliers

1 1.000000 1.200000 1.400000 1.600000 1.400000 1.200000
1 1.000000 0.800000 0.600000 0.400000 0.600000 0.800000

P_10 0.614895 0.635877 0.543935 0.471921 0.448176 0.430449
P_10 0.418956 0.457492 0.432489 0.469275 0.583226 0.689652
P_10 0.743557 0.865566 0.877742 0.993964 1.160330 1.114860
P_10 1.234825 1.297168 1.405426 1.242562 1.335140 1.191276
P_10 1.158909 0.957456 0.968908 0.978103 0.888217 0.865563
P_10 0.876341 0.740140 0.781530 0.884337 0.921795 0.922078
P_10 0.979303 0.956344 0.896277 1.016887 1.050488 0.992863
P_10 1.051813 0.973481 0.875785 0.831779 0.813803 0.712607
P_10 0.715991 0.641276 0.537282 0.463432 0.475945 0.406287
P_10 0.427770 0.455853 0.535350 0.559376 0.592863 0.631093
P_10 0.736484 0.754832 0.933917 0.939869 1.001511 1.049235
P_10 1.191830 1.249628 1.178789 1.100479 1.157097 1.185261
P_10 1.115060 1.034960 1.028700 1.005675 0.967754 0.920963
P_10 0.766271 0.967313 1.003916 0.805002 0.902425 0.985467
P_10 0.990711 1.036161 1.094591 1.150256 1.166445 1.105883
P_10 0.989782 1.006395 0.947434 0.876161 0.751546 0.716267
P_10 0.693120 0.605762 0.558585 0.462694 0.475011 0.459840
P_10 0.476496 0.452203 0.509717 0.567749 0.639543 0.741792
P_10 0.801064 0.888570 1.000277 1.043609 0.992593 1.064274
P_10 1.180766 1.264526 1.103876 1.227039 1.168889 1.174606
P_10 1.138854 0.999963 1.032227 0.980858 1.013364 1.011976
P_10 0.964989 0.847302 1.033531 0.940437 1.006966 1.025912
P_10 0.982991 1.022685 1.068893 1.099384 0.977859 0.992737
P_10 0.943477 1.104448 0.866247 0.867197 0.789906 0.753242
P_10 0.689500 0.587448 0.568532 0.470431 0.453276 0.423304
P_10 0.471492 0.482694 0.510282 0.530300 0.611562 0.762993
P_10 0.795557 0.837642 0.922918 1.033331 1.138401 1.243508
P_10 1.157612 1.200579 1.205572 1.186670 1.175757 1.085143
P_10 1.074238 1.058036 1.096647 0.999092 0.963140 0.910672
P_10 0.967686 0.871341 0.914225 0.984462 0.905486 0.900243
P_10 1.013777 0.997996 1.012365 1.018687 1.085901 0.958580
P_10 1.049563 0.988403 0.944037 0.906093 0.736523 0.812999
P_10 0.654923 0.630651 0.532072 0.534110 0.476833 0.462358
P_10 0.496717 0.456694 0.493526 0.561697 0.649293 0.790745
P_10 0.846825 1.005829 1.108750 1.096663 1.258290 1.269694
P_10 1.370406 1.349574 1.256880 1.344657 1.237291 1.171333
P_10 1.102515 1.225423 1.089482 1.075224 1.001960 0.982725
P_10 0.988254 0.970757 1.002459 1.026700 1.041801 1.039798
P_10 1.043150 1.015856 1.020565 1.159895 1.057338 1.027550
P_10 1.010408 0.995108 0.942522 0.844817 0.857610 0.786636
P_10 0.693621 0.662326 0.591189 0.555551 0.544679 0.476189
P_10 0.478183 0.496955 0.493684 0.484051 0.545413 0.527861
P_10 0.674921 0.721137 0.809993 0.830062 0.900079 0.972511
P_10 0.976174 1.072862 1.123795 1.189346 1.099757 1.125966
P_10 1.068046 1.047980 1.035774 1.000747 0.999700 1.043755
P_10 0.984431 1.048665 0.996665 0.969308 1.022038 0.925674
P_10 1.047300 0.998160 0.999534 0.930933 0.963894 0.962104
P_10 0.856238 0.870261 0.866288 0.753582 0.718085 0.687158
P_10 0.684011 0.586376 0.530268 0.576392 0.529476 0.484217
P_10 0.492562 0.510822 0.474764 0.526010 0.526624 0.528790
P_10 0.503178 0.676070 0.659329 0.723729 0.789528 0.855559
P_10 0.833538 1.004150 0.981084 0.927848 1.036153 0.986667
P_10 0.930318 0.997122 0.956966 1.031901 0.956145 0.891108
P_10 0.911625 0.879252 0.938537 0.940194 0.923421 0.883428
P_10 1.033964 0.986753 1.012032 0.996146 0.957106 0.989402
P_10 1.009297 0.981571 0.844420 0.805971 0.732936 0.750730
P_10 0.659528 0.643236 0.538811 0.514517 0.428173 0.470965
P_10 0.444677 0.460430 0.477408 0.556844 0.607441 0.652728
P_10 0.762052 0.846271 1.015296 1.040008 1.179702 1.198526
P_10 1.234183 1.180296 1.231187 1.361033 1.201002 1.171671
P_10 1.168407 1.126807 0.989582 1.081399 0.961652 0.848520
P_10 0.874780 0.872255 0.770747 0.861047 0.964872 0.926366
P_10 0.885889 0.955645 1.017667 1.076545 1.043137 1.132286
P_10 0.998566 1.075354 1.018442 0.915629 0.816223 0.801561
P_10 0.755454 0.620426 0.508655 0.463472 0.475757 0.430001
P_10 0.459177 0.484228 0.545552 0.598568 0.664640 0.768267
P_10 0.754303 0.835052 0.898401 0.958438 0.972484 1.079866
P_10 1.159088 1.197207 1.246450 1.196431 1.223819 1.041973
P_10 1.110682 1.067907 0.991012 0.996222 0.930544 0.882326
P_10 0.820748 0.827940 0.861996 0.923206 0.930844 1.009505
P_10 1.074998 1.096599 1.121930 1.173661 1.090380 1.192692
P_10 1.046866 1.080071 0.864324 0.927279 0.811561 0.786358
P_10 0.697267 0.627519 0.545797 0.479518 0.443937 0.431844
P_10 0.465548 0.482427 0.558833 0.602315 0.655324 0.727097
P_10 0.834257 0.856473 0.882489 1.067182 1.072129 1.164215
P_10 1.144028 1.252493 1.213889 1.178520 1.253652 1.301054
P_10 1.219961 1.031000 1.132325 1.079695 0.904085 0.898260
P_10 0.936906 1.006378 0.967367 0.982097 1.057746 0.929295
P_10 1.005610 1.044004 1.058047 1.099264 1.029261 1.013773
P_10 0.986755 1.009953 0.941703 0.835419 0.808768 0.707445
P_10 0.728278 0.617745 0.577436 0.510741 0.464584 0.472291
P_10 0.472030 0.471379 0.522427 0.577483 0.587011 0.719647
P_10 0.782998 0.940556 0.911603 1.071414 1.178544 1.153907
P_10 1.128288 1.215664 1.206718 1.033481 1.159949 1.211176
P_10 1.106416 1.007283 1.012870 0.946533 0.977536 0.896391
P_10 0.882362 0.937219 0.903902 0.930717 0.954485 1.003700
P_10 1.001430 1.041617 1.190604 1.130027 1.130645 1.014060
P_10 1.085972 0.959759 0.966597 0.883255 0.869460 0.752877
P_10 0.679086 0.643831 0.554799 0.491904 0.468885 0.478711
P_10 0.423457 0.511109 0.557743 0.646947 0.698362 0.868978
P_10 0.945989 1.015345 1.143942 1.251022 1.316839 1.330671
P_10 1.353191 1.243165 1.309645 1.286549 1.344011 1.250667
P_10 1.137188 1.129931 1.123696 1.017192 0.922659 0.960811
P_10 0.903870 0.999752 0.947946 0.999947 1.009324 1.107934
P_10 1.027304 1.072148 0.983267 1.055055 1.029269 1.055248
P_10 0.952835 0.998173 0.864226 0.950064 0.844760 0.798804
P_10 0.734778 0.676019 0.650580 0.567821 0.556113 0.552155
P_10 0.518503 0.471504 0.500164 0.555689 0.601940 0.638110
P_10 0.696598 0.724727 0.799796 0.915217 0.968751 0.996888
P_10 1.060827 1.161875 1.044120 1.149374 1.156983 1.144473
P_10 1.111192 1.116420 1.073546 1.097748 1.014943 1.019582
P_10 1.069888 0.973006 1.040776 1.004288 0.994832 1.118723
P_10 1.039591 1.014644 1.050407 0.942825 0.911113 0.905603
P_10 0.874667 0.897670 0.791006 0.829162 0.751458 0.681236
P_10 0.671487 0.645336 0.608195 0.514252 0.488331 0.494808
P_10 0.493392 0.519301 0.500323 0.519529 0.519059 0.509333
P_10 0.503950 0.584239 0.681633 0.722656 0.754975 0.807747
P_10 0.886261 1.033662 1.040240 1.085660 1.062589 1.099846
P_10 0.972858 1.046014 1.022416 0.936985 0.990802 0.931633
P_10 0.910308 0.871964 0.890062 0.917822 0.864657 0.882022
P_10 0.937956 0.979791 0.979091 1.072340 1.054558 0.999949
P_10 0.997339 0.936010 0.841036 0.799561 0.789059 0.639748
P_10 0.652693 0.595922 0.542798 0.539318 0.434760 0.440037
P_10 0.449374 0.491596 0.458619 0.546451 0.593662 0.725205
P_10 0.746788 0.867920 0.961805 1.056225 1.167554 1.185757
P_10 1.151060 1.234251 1.299485 1.160519 1.295928 1.208185
P_10 1.128727 1.080988 1.136640 1.047136 0.993069 0.960172
P_10 0.955270 0.852131 0.879108 0.872078 0.940929 0.942039
P_10 0.906823 1.027741 1.128370 1.026353 0.986461 0.999750
P_10 1.133493 0.953385 0.915686 0.919469 0.909012 0.797254
P_10 0.721165 0.546943 0.515243 0.485847 0.504401 0.475146
P_10 0.453954 0.455295 0.500930 0.571508 0.623560 0.682277
P_10 0.799304 0.906186 0.866031 1.035302 0.958761 1.175293
P_10 1.180558 1.104078 1.206073 1.129185 1.216343 1.156102
P_10 1.182240 1.098210 1.075964 1.017266 0.902174 0.952667
P_10 0.942912 0.980697 1.039855 0.985738 0.933100 0.999430
P_10 1.014873 1.065594 1.078065 1.086789 1.016190 1.127341
P_10 1.076474 1.076957 0.936949 0.909223 0.850837 0.741958
P_10 0.711328 0.589385 0.573923 0.507409 0.466468 0.497177
P_10 0.467420 0.479183 0.524124 0.566347 0.626008 0.769255
P_10 0.863641 0.937637 0.996972 1.088329 1.120749 1.196289
P_10 1.221759 1.249983 1.147654 1.279419 1.215975 1.233909
P_10 1.081111 1.199521 1.078301 1.114425 1.034574 1.039247
P_10 0.992480 1.025252 1.002745 0.883148 0.984051 1.008308
P_10 1.069777 0.983692 1.012046 1.062852 1.037951 1.049387
P_10 0.983262 1.023571 1.053427 0.914747 0.865525 0.727916
P_10 0.683309 0.621265 0.526177 0.493810 0.493695 0.465235
P_10 0.450694 0.484992 0.548782 0.551997 0.632428 0.701354
P_10 0.838758 0.854769 0.986341 0.995011 1.135529 1.187608
P_10 1.186663 1.235066 1.245105 1.133088 1.158583 1.110247
P_10 1.123290 1.121004 1.010281 0.992945 0.920532 0.984885
P_10 0.973114 0.924765 0.977748 0.967742 1.004802 1.023434
P_10 0.968244 0.993798 1.029086 1.061646 1.128520 1.153557
P_10 1.055535 1.010781 0.912595 0.890984 0.860531 0.849188
P_10 0.676821 0.650999 0.561554 0.532462 0.470878 0.431418
P_10 0.485306 0.512040 0.562377 0.555132 0.700668 0.818281
P_10 0.916821 1.087416 1.097041 1.221293 1.310099 1.172587
P_10 1.357880 1.413917 1.359524 1.427556 1.312063 1.308164
P_10 1.141207 1.037764 1.164009 1.082819 1.173695 1.023454
P_10 1.037460 1.076820 0.987675 0.926978 0.976706 1.069871
P_10 1.008308 1.075114 1.114696 1.069487 1.126854 1.020400
P_10 1.048055 0.966551 0.937201 0.878224 0.844132 0.856480
P_10 0.737562 0.693641 0.654641 0.567960 0.594602 0.498834
P_10 0.497784 0.538725 0.509084 0.511522 0.552450 0.599015
P_10 0.696666 0.766620 0.745487 0.899636 0.990577 0.981680
P_10 0.975065 1.040984 1.151577 1.052415 1.226199 1.132779
P_10 1.086142 1.101410 1.119246 1.056456 1.013174 0.984180
P_10 1.062086 0.978967 1.099413 1.093157 1.146024 1.092168
P_10 1.049490 0.996787 1.000617 1.009549 1.011817 0.967650
P_10 0.911007 0.853377 0.865833 0.893324 0.725024 0.739481
P_10 0.677605 0.689408 0.600174 0.609148 0.570165 0.516461
P_10 0.480015 0.462636 0.476572 0.494140 0.548004 0.587768
P_10 0.587775 0.633447 0.690168 0.757111 0.786849 0.888655
P_10 0.940730 1.032172 1.016808 1.054085 1.102798 1.179567
P_10 1.044076 1.045922 1.066619 0.981406 0.948524 0.960138
P_10 1.029557 0.935408 0.963243 0.913078 0.911588 0.977779
P_10 0.927515 1.038258 0.974219 1.057164 1.065313 1.062459
P_10 0.984204 0.986450 0.870212 0.840534 0.734365 0.773235
P_10 0.621324 0.635330 0.528290 0.536989 0.494472 0.429356
P_10 0.454800 0.466318 0.514808 0.537932 0.603877 0.714879
P_10 0.840702 0.900014 1.042398 1.026741 1.030787 1.171978
P_10 1.191591 1.242648 1.309577 1.279108 1.213790 1.161380
P_10 1.218863 1.161273 1.083629 1.067643 1.007518 0.885505
P_10 0.965886 0.847642 0.880091 0.892271 1.037976 0.961155
P_10 1.056784 0.994121 1.014316 1.131287 1.171103 0.955095
P_10 1.044681 1.064794 0.938227 0.960247 0.906541 0.722233
P_10 0.698088 0.680463 0.573532 0.540321 0.489012 0.476883
P_10 0.451838 0.516147 0.477534 0.586292 0.668480 0.683093
P_10 0.798673 0.841308 0.926178 0.983166 1.145030 1.138072
P_10 1.166953 1.356613 1.326678 1.162920 1.296428 1.171306
P_10 1.219086 1.101715 1.081574 0.938899 0.960196 0.926887
P_10 0.929011 0.948798 0.976571 1.007673 0.889694 0.994568
P_10 1.050143 1.169930 1.063881 1.175371 1.123094 1.130810
P_10 1.090627 1.032842 1.073257 0.928799 0.799657 0.844108
P_10 0.697077 0.636091 0.543426 0.494613 0.447635 0.445930
P_10 0.470946 0.501139 0.545249 0.630804 0.629630 0.722822
P_10 0.892028 0.940886 1.038107 1.049200 1.197147 1.144725
P_10 1.266829 1.301321 1.292510 1.222877 1.253471 1.240190
P_10 1.278555 1.107508 1.072960 1.049329 1.046377 0.930208
P_10 1.023809 0.973541 1.052308 0.962777 1.019024 1.023549
P_10 0.928540 1.086006 1.081588 1.064905 1.086056 1.275695
P_10 1.054002 1.102647 0.934623 0.957089 0.880776 0.814707
P_10 0.711571 0.653205 0.581191 0.561117 0.426781 0.457023
P_10 0.462069 0.458283 0.527993 0.632909 0.683669 0.726332
P_10 0.786348 0.931459 0.962072 1.127194 1.223377 1.250729
P_10 1.202011 1.275663 1.262770 1.317313 1.158939 1.273010
P_10 1.106191 1.141446 1.039524 1.025554 0.934302 0.990602
P_10 1.060290 0.997226 1.035644 0.952624 1.034578 1.042807
P_10 1.059764 1.119970 1.178924 1.049252 1.208632 1.145177
P_10 0.969134 1.078284 1.092932 0.952533 0.835864 0.703866
P_10 0.699229 0.682668 0.568112 0.544681 0.447033 0.494378
P_10 0.511050 0.564992 0.558560 0.699157 0.777762 0.872283
P_10 0.881863 1.074195 1.159580 1.268260 1.257769 1.211030
P_10 1.440618 1.335256 1.353651 1.267792 1.312224 1.254315
P_10 1.152283 1.132325 1.227695 1.119707 1.157127 1.089324
P_10 1.046743 1.184472 0.984409 1.026950 1.062504 1.065804
P_10 1.071452 1.112771 1.036667 1.010727 1.120023 1.103434
P_10 0.935274 0.993838 1.037956 0.924084 0.930773 0.807019
P_10 0.776044 0.674630 0.666630 0.587121 0.526983 0.537081
P_10 0.529248 0.505994 0.505108 0.593709 0.594135 0.640793
P_10 0.709296 0.846069 0.847357 0.937019 0.942464 1.025362
P_10 1.036744 1.161241 1.128433 1.216849 1.189972 1.150047
P_10 1.200248 1.196822 1.118962 1.109605 1.102713 1.072160
P_10 1.042185 1.078604 1.096672 1.108981 1.081397 1.039195
P_10 1.060153 1.090553 1.043154 0.993285 0.994629 0.979881
P_10 0.949496 0.831452 0.841890 0.915238 0.782071 0.755080
P_10 0.625700 0.639009 0.593333 0.596096 0.559605 0.536450
P_10 0.531664 0.489937 0.469277 0.526554 0.511970 0.513881
P_10 0.565117 0.632167 0.718035 0.801463 0.823875 0.826864
P_10 0.967995 1.018162 1.060923 1.139793 1.138631 1.018939
P_10 0.997975 1.161735 1.030416 1.050423 0.918813 0.982606
P_10 1.011004 0.970233 0.946715 0.868804 0.894305 1.017444
P_10 1.074192 1.041217 0.963820 1.070750 0.994803 1.030738
P_10 0.931958 0.915375 0.936817 0.914691 0.896516 0.726994
P_10 0.643247 0.601535 0.562241 0.502620 0.512124 0.472267
P_10 0.454371 0.470039 0.566287 0.552293 0.581587 0.700451
P_10 0.853097 0.887553 1.002522 1.030844 1.067601 1.175438
P_10 1.192812 1.272693 1.317179 1.314810 1.290734 1.273985
P_10 1.321899 1.098016 1.156563 1.040697 0.906851 0.940527
P_10 0.905690 0.913057 0.952825 0.957411 0.931317 1.009167
P_10 1.053951 1.092006 1.190705 1.077432 1.122244 1.071068
P_10 1.194267 1.101143 1.018087 0.885179 0.866069 0.934209
P_10 0.750548 0.656672 0.552991 0.565001 0.527917 0.507341
P_10 0.479371 0.492497 0.539257 0.612767 0.618648 0.754479
P_10 0.815212 0.912869 1.016089 1.082899 1.173411 1.113924
P_10 1.220519 1.307540 1.134288 1.266614 1.274348 1.261617
P_10 1.215915 1.189675 1.061895 1.026831 1.052602 0.938985
P_10 0.953852 0.975121 1.033010 0.921776 1.099038 1.056353
P_10 1.075683 1.110192 1.111136 1.250246 1.236272 1.115778
P_10 1.198353 1.163857 0.982235 1.016915 0.920525 0.836749
P_10 0.657908 0.662868 0.595506 0.567034 0.496689 0.467182
P_10 0.476118 0.476062 0.564472 0.618935 0.681534 0.760916
P_10 0.862932 0.829684 1.031145 1.073218 1.099036 1.174629
P_10 1.267725 1.290036 1.283987 1.313569 1.313336 1.274762
P_10 1.275617 1.103844 1.100774 1.106354 1.020807 1.067522
P_10 1.044927 0.943227 1.033219 1.039170 1.054234 1.103730
P_10 1.045016 1.082218 1.235143 1.050231 1.076828 1.082457
P_10 1.073341 1.042642 0.975534 0.900672 0.838664 0.898068
P_10 0.683994 0.665331 0.596102 0.536484 0.514118 0.511754
P_10 0.470144 0.462683 0.543807 0.576877 0.659857 0.763441
P_10 0.853007 0.973542 1.045850 1.090472 1.224668 1.272073
P_10 1.308829 1.322130 1.251739 1.179121 1.175379 1.178095
P_10 1.083676 1.095171 1.031888 0.939340 0.950542 0.996809
P_10 0.983512 0.957761 1.041763 1.082511 1.043868 1.102520
P_10 1.074424 1.085740 1.200796 1.207423 1.082966 1.141651
P_10 1.002018 1.073687 1.089184 0.923871 0.980341 0.846614
P_10 0.751980 0.680757 0.625276 0.576869 0.520592 0.493387
P_10 0.469457 0.547110 0.563771 0.601293 0.726178 0.793129
P_10 0.946724 1.037664 1.085201 1.164367 1.250838 1.307242
P_10 1.479312 1.469584 1.366007 1.378890 1.406546 1.346403
P_10 1.365079 1.197972 1.157956 1.181504 1.160126 0.938059
P_10 1.055955 1.047137 0.906621 1.152709 1.152265 1.033848
P_10 1.055634 1.059039 1.240296 1.149924 1.010320 1.113417
P_10 1.145360 1.055192 0.924547 0.995932 0.894337 0.860790
P_10 0.781929 0.717532 0.678383 0.613367 0.603363 0.555681
P_10 0.572347 0.514375 0.528874 0.584334 0.606388 0.687660
P_10 0.683040 0.799311 0.799382 0.980578 1.001360 1.065485
P_10 1.139430 1.069716 1.224227 1.099154 1.297973 1.150343
P_10 1.180437 1.208987 1.095886 1.182339 1.096788 1.112171
P_10 1.076151 1.080407 1.028450 0.999246 1.110031 1.009311
P_10 1.104665 1.074851 1.044228 1.086677 0.942413 1.040673
P_10 0.969509 0.991889 0.874434 0.863172 0.782433 0.740849
P_10 0.709517 0.630941 0.591211 0.554311 0.509643 0.580955
P_10 0.501854 0.542982 0.506047 0.500717 0.543792 0.582463
P_10 0.635322 0.709034 0.697240 0.716572 0.812926 0.887811
P_10 0.981386 1.005453 1.095791 1.118395 1.226244 1.096776
P_10 1.108163 1.080142 1.054056 1.040820 1.036732 0.960734
P_10 0.978412 1.026486 0.940232 0.959565 1.029024 0.967689
P_10 1.058257 1.049652 1.179025 1.044402 1.026522 1.019475
P_10 1.098532 0.967879 0.994997 0.863226 0.917215 0.775603
P_10 0.730866 0.627184 0.578565 0.510123 0.499968 0.429609
P_10 0.444218 0.518578 0.535520 0.600351 0.705979 0.696574
P_10 0.747398 0.966060 0.963444 1.046392 1.177417 1.310152
P_10 1.243833 1.412269 1.289595 1.364176 1.359128 1.300881
P_10 1.355922 1.167003 1.117030 1.159872 0.933131 1.054474
P_10 1.017997 0.951983 0.949384 0.892243 0.978302 1.000635
P_10 1.025657 1.077336 1.026946 1.114650 1.090127 1.199166
P_10 1.131155 1.134202 0.954622 1.016143 0.869462 0.856918
P_10 0.715125 0.734937 0.596969 0.559465 0.531224 0.514865
P_10 0.515616 0.482102 0.558546 0.595479 0.664186 0.753998
P_10 0.868593 0.921121 0.999087 1.047881 1.260842 1.185548
P_10 1.205531 1.346851 1.201557 1.166520 1.226782 1.192698
P_10 1.218913 1.087351 1.045447 1.058924 1.020860 1.025207
P_10 0.933430 0.963952 1.008469 1.043669 0.974680 1.004881
P_10 1.062659 1.074495 1.286273 1.215525 1.128613 1.171607
P_10 1.152642 1.059146 1.097165 1.002435 0.950855 0.805679
P_10 0.697354 0.671228 0.622307 0.494875 0.495373 0.435778
P_10 0.482459 0.517687 0.574844 0.605641 0.675687 0.806568
P_10 0.823389 0.909999 1.071208 1.103481 1.218392 1.237212
P_10 1.255758 1.325886 1.246334 1.258056 1.311294 1.233786
P_10 1.394208 1.087290 1.097592 1.144339 1.053719 1.116916
P_10 1.115614 0.932816 1.003822 0.986599 1.032828 1.060337
P_10 1.126130 1.065747 1.035057 1.073035 1.184201 1.139859
P_10 1.064773 1.085921 1.163731 0.962776 0.936418 0.840224
P_10 0.762542 0.690611 0.574038 0.596000 0.495424 0.491934
P_10 0.482471 0.570047 0.519500 0.615629 0.644876 0.764680
P_10 0.897927 0.902035 0.974714 1.137897 1.123622 1.108838
P_10 1.357842 1.371875 1.222117 1.246507 1.123450 1.097249
P_10 1.250139 1.195814 1.095581 1.075709 1.014775 0.971604
P_10 0.993489 1.032422 1.020261 0.961664 0.994866 1.074490
P_10 1.212506 1.094969 1.186333 1.077883 1.144533 1.179012
P_10 1.094545 1.136375 0.986163 0.926657 0.915126 0.878651
P_10 0.855247 0.623594 0.601081 0.564745 0.476271 0.541411
P_10 0.582322 0.541553 0.613546 0.648630 0.778762 0.854096
P_10 1.051104 1.075095 1.152952 1.298410 1.471841 1.487789
P_10 1.496518 1.306682 1.504829 1.363906 1.285586 1.303820
P_10 1.324987 1.253439 1.213382 1.134717 1.146955 1.025801
P_10 1.011997 1.114680 1.100130 1.111196 1.269214 1.123541
P_10 1.152283 1.200815 1.203851 1.231224 1.153070 1.201099
P_10 1.089070 1.000023 1.045515 0.996019 0.970415 0.803944
P_10 0.839385 0.785134 0.654359 0.625728 0.621630 0.547416
P_10 0.555743 0.478169 0.557852 0.487363 0.614033 0.667286
P_10 0.779809 0.805563 0.866462 1.040711 0.975061 1.050875
P_10 1.130016 1.223185 1.251976 1.111785 1.248637 1.167744
P_10 1.220947 1.075285 1.164138 1.082185 0.989976 1.203200
P_10 1.109793 1.036283 1.150946 1.195561 1.050472 1.118911
P_10 1.058001 1.067037 1.052349 1.052652 1.069014 0.963543
P_10 1.050682 0.991962 0.890799 0.938813 0.810824 0.710027
P_10 0.750189 0.634856 0.661346 0.603410 0.597231 0.590088
P_10 0.529413 0.578489 0.528865 0.492941 0.563674 0.577059
P_10 0.606217 0.731380 0.678869 0.775724 0.849964 0.913665
P_10 0.907138 1.056225 1.073289 1.003087 1.119234 1.249573
P_10 1.229509 1.213321 1.069465 1.110783 1.013201 1.017196
P_10 1.030332 0.970929 0.993497 1.063632 1.012173 1.054243
P_10 1.077565 1.151381 0.996687 1.112478 1.128515 1.074997
P_10 0.989968 1.061641 0.997339 0.868250 0.823445 0.821677
P_10 0.707521 0.632781 0.548897 0.555800 0.456966 0.478733
P_10 0.469825 0.516242 0.536362 0.624835 0.655916 0.675088
P_10 0.851794 0.967546 0.972569 1.129809 1.180283 1.224872
P_10 1.381609 1.375276 1.481715 1.421693 1.372914 1.281093
P_10 1.272055 1.265343 1.129289 1.152710 1.050477 0.956827
P_10 0.932022 1.009074 0.923984 0.955348 0.889192 1.018309
P_10 0.985386 1.084779 1.077760 1.286306 1.317371 1.140226
P_10 1.199402 1.035080 1.026187 1.060924 0.933255 0.825891
P_10 0.763978 0.681478 0.601390 0.542735 0.514989 0.496080
P_10 0.506214 0.544251 0.538266 0.626398 0.727508 0.789497
P_10 0.869766 0.906799 0.985350 1.080280 1.106564 1.168764
P_10 1.213351 1.347293 1.304005 1.314434 1.309202 1.208347
P_10 1.167319 1.238695 1.106923 1.123339 1.023924 0.992205
P_10 0.958349 1.037818 0.984095 0.970540 0.947924 1.093115
P_10 1.136881 1.144516 1.317824 1.150621 1.067718 1.173499
P_10 1.159363 1.279891 1.054870 1.004887 0.900718 0.835315
P_10 0.754428 0.688141 0.601423 0.473983 0.523040 0.486367
P_10 0.501637 0.534512 0.554234 0.627597 0.707206 0.752523
P_10 0.914548 0.989879 1.037359 1.104193 1.296048 1.253057
P_10 1.228369 1.388734 1.404694 1.422905 1.239320 1.273134
P_10 1.249397 1.296813 1.235822 1.118519 1.050307 1.037655
P_10 1.067770 1.067679 1.104887 0.911202 0.989090 1.168004
P_10 1.116410 1.125745 1.086407 1.115827 1.252664 1.159760
P_10 1.212391 1.124450 1.032730 1.026299 0.961815 0.834694
P_10 0.724229 0.657655 0.656016 0.544246 0.534514 0.497476
P_10 0.500783 0.532269 0.553604 0.636028 0.740455 0.764081
P_10 0.884716 0.905536 1.016599 1.181696 1.237750 1.343843
P_10 1.270229 1.365329 1.301160 1.274540 1.275446 1.187281
P_10 1.242418 1.158175 1.212634 1.080112 1.099971 1.080217
P_10 1.007362 1.008701 1.050652 1.095079 1.016755 1.042440
P_10 1.203860 1.073254 1.195875 1.262690 1.288309 1.264199
P_10 1.150178 1.048212 1.110344 1.052237 0.924343 0.871222
P_10 0.785885 0.759206 0.650310 0.562738 0.559895 0.490993
P_10 0.503265 0.544450 0.619897 0.676019 0.813788 0.804024
P_10 1.001617 1.076582 1.261143 1.365418 1.278519 1.450117
P_10 1.516269 1.510385 1.471729 1.659102 1.613807 1.449202
P_10 1.300027 1.175584 1.321171 1.219557 1.081045 1.063998
P_10 1.038969 1.157348 1.184478 1.163227 1.136213 1.083386
P_10 1.183297 1.085969 1.156917 1.168758 1.080990 1.166112
P_10 1.094593 1.037386 1.081454 0.940829 0.908391 0.863190
P_10 0.821789 0.796638 0.787542 0.552038 0.538851 0.632127
P_10 0.566242 0.532506 0.510428 0.554297 0.604012 0.674105
P_10 0.742878 0.757468 0.914290 0.922558 1.028732 1.115130
P_10 1.100494 1.186101 1.363481 1.215634 1.344704 1.187539
P_10 1.281762 1.210765 1.210650 1.089083 1.086229 1.085287
P_10 1.115269 1.107791 1.185607 1.116862 1.179335 1.205752
P_10 1.184001 1.046136 1.177088 1.114836 1.086652 1.015168
P_10 0.964398 0.955206 0.959491 0.826159 0.859578 0.825440
P_10 0.761221 0.726635 0.759200 0.670662 0.565531 0.548711
P_10 0.579700 0.507553 0.548982 0.546645 0.549119 0.604097
P_10 0.574723 0.663070 0.674648 0.760221 0.888710 1.001661
P_10 0.923036 1.168288 1.124661 1.063778 1.224261 1.189456
P_10 1.164540 1.160660 1.019107 1.079935 1.049216 0.992518
P_10 1.020895 0.954864 1.083925 1.041052 1.015637 1.076787
P_10 1.045612 1.004036 1.133769 1.134754 1.156953 1.060072
P_10 1.113748 1.013967 0.989068 0.935900 0.885282 0.783638
P_10 0.736500 0.729936 0.502479 0.578795 0.498404 0.514898
P_10 0.491725 0.534700 0.521352 0.628751 0.695294 0.697623
P_10 0.845965 0.974633 1.027912 1.183068 1.107199 1.292939
P_10 1.282466 1.441524 1.549040 1.408323 1.225711 1.373218
P_10 1.326620 1.203895 1.134967 1.198613 1.051223 1.109173
P_10 0.988124 1.020200 0.988800 0.966942 0.931948 1.075459
P_10 1.106163 1.138265 1.188970 1.297590 1.204670 1.248743
P_10 1.179726 1.123404 1.133578 1.064860 0.965840 0.811678
P_10 0.840995 0.708241 0.643697 0.540645 0.517389 0.505729
P_10 0.509649 0.556466 0.550630 0.607827 0.701290 0.728020
P_10 0.874086 0.987275 1.037157 1.155072 1.213731 1.260729
P_10 1.427176 1.240686 1.261583 1.400676 1.396715 1.278692
P_10 1.367981 1.161467 1.165254 1.039349 1.050183 1.017816
P_10 0.983025 0.938695 1.015352 1.025128 1.105828 1.120157
P_10 1.126841 1.108042 1.236987 1.207926 1.191451 1.332520
P_10 1.128851 1.172807 1.030300 0.997262 0.965363 0.893314
P_10 0.772377 0.682303 0.600199 0.573124 0.553087 0.500989
P_10 0.556847 0.575776 0.598692 0.598183 0.726653 0.799128
P_10 0.892518 1.053111 1.043564 1.071710 1.193163 1.294882
P_10 1.363778 1.379028 1.313950 1.243075 1.315573 1.216087
P_10 1.321078 1.234416 1.252672 1.174713 1.093706 1.144950
P_10 1.062895 0.985851 1.061946 1.085148 1.052501 1.214831
P_10 1.071951 1.208285 1.157425 1.208329 1.225779 1.233614
P_10 1.242818 1.222320 1.107393 1.016752 0.926165 0.807665
P_10 0.743034 0.698908 0.665869 0.572639 0.564689 0.496732
P_10 0.491618 0.507724 0.549867 0.669241 0.673403 0.830236
P_10 0.901297 1.067749 1.002526 1.102016 1.144749 1.261415
P_10 1.181094 1.349907 1.357619 1.408209 1.385073 1.198961
P_10 1.226329 1.177734 1.133331 1.133392 1.041609 1.060426
P_10 1.076060 1.042725 1.056201 1.084176 1.078043 1.055224
P_10 1.209944 1.016253 1.248156 1.262520 1.255742 1.186566
P_10 1.098101 1.114374 1.022658 1.010133 1.028083 0.913995
P_10 0.845322 0.705502 0.646973 0.565987 0.536476 0.538528
P_10 0.517982 0.527118 0.611628 0.664608 0.791810 0.917618
P_10 0.994132 1.065356 1.191525 1.276594 1.337420 1.461367
P_10 1.470755 1.598332 1.534238 1.449676 1.412740 1.484793
P_10 1.302689 1.329907 1.216133 1.147990 1.150211 1.311762
P_10 1.160984 1.139401 1.168438 1.015083 1.180404 1.367820
P_10 1.205564 1.216155 1.147675 1.183035 1.211474 1.099427
P_10 1.023090 1.045770 1.022142 1.049811 0.939083 0.951665
P_10 0.849571 0.743003 0.712120 0.570168 0.629064 0.555382