; Filename: networks/Net1.inp
; WNTR: 0.1.6
; Created: 2019-04-09 13:26:38
[TITLE]
EPANET Example Network 1
A simple example of modeling chlorine decay. Both bulk and
wall reactions are included.

[JUNCTIONS]
;ID                      Elevation       Demand Pattern                 
 10                               710               0                            ;
 11                               710               0                            ;
 12                               700               0                            ;
 13                               695               0                            ;
 21                               700               0                            ;
 22                               695               0                            ;
 23                               690               0                            ;
 31                               700               0                            ;
 32                               710               0                            ;

[RESERVOIRS]
;ID                                   Head                  Pattern
 9                                800                            ;

[TANKS]
;ID                              Elevation           Init Level            Min Level            Max Level             Diameter           Min Volume Volume Curve        
 2                                850             120             100             150            50.5               0                        ;

[PIPES]
;ID                   Node1                Node2                              Length             Diameter            Roughness           Minor Loss               Status
 10                   10                   11                             10530              18             100               0                 Open   ;
 11                   11                   12                              5280              14             100               0                 Open   ;
 12                   12                   13                              5280              10             100               0                 Open   ;
 21                   21                   22                              5280              10             100               0                 Open   ;
 22                   22                   23                              5280              12             100               0                 Open   ;
 31                   31                   32                              5280               6             100               0                 Open   ;
 110                  2                    12                               200              18             100               0                 Open   ;
 111                  11                   21                              5280              10             100               0                 Open   ;
 112                  12                   22                              5280              12             100               0                 Open   ;
 113                  13                   23                              5280               8             100               0                 Open   ;
 121                  21                   31                              5280               8             100               0                 Open   ;
 122                  22                   32                              5280               6             100               0                 Open   ;

[PUMPS]
;ID                   Node1                Node2                Properties          
 9                    9                    10                   HEAD     1                      ;

[VALVES]
;ID                   Node1                Node2                            Diameter Type              Setting           Minor Loss

[TAGS]
;type      name       tag       

[DEMANDS]
;ID        Demand     Pattern   
10         0.0        P_10      
11         150.0      P_11      
12         150.0      P_12      
13         100.0      P_13      
21         150.0      P_21      
22         200.0      P_22      
23         150.0      P_23      
31         100.0      P_31      
32         100.0      P_32      

[STATUS]
;ID        Setting   
[PATTERNS]
;ID        Multipliers

1 1.000000 1.200000 1.400000 1.600000 1.400000 1.200000
1 1.000000 0.800000 0.600000 0.400000 0.600000 0.800000

P_10 0.664271 0.595846 0.522844 0.512141 0.517808 0.412909
P_10 0.438851 0.518530 0.496753 0.568345 0.641744 0.706164
P_10 0.702193 0.823778 0.960726 1.075622 1.067758 1.101145
P_10 1.198007 1.223712 1.197908 1.299320 1.227745 1.143615
P_10 1.086762 1.111427 1.130962 0.911953 0.969858 0.889625
P_10 0.853740 0.896137 0.888001 0.837681 0.902667 0.846278
P_10 0.872304 1.035196 1.057916 1.067666 1.093155 1.094334
P_10 1.012512 0.900116 0.922114 0.909354 0.765006 0.750503
P_10 0.628974 0.615496 0.573267 0.509543 0.428879 0.514555
P_10 0.477968 0.488015 0.471236 0.584316 0.623389 0.717539
P_10 0.739786 0.841329 0.849247 1.042998 1.134085 0.979576
P_10 1.288932 1.081396 1.210273 1.189426 1.179529 1.148832
P_10 1.128566 1.058361 1.088339 0.990466 0.931874 0.853607
P_10 0.856574 0.910658 0.843648 0.915997 0.988431 0.983515
P_10 1.030842 1.081935 1.056132 1.059662 1.143194 1.059546
P_10 1.010656 1.040448 0.877651 0.860982 0.822533 0.707464
P_10 0.648452 0.565317 0.479509 0.547161 0.476160 0.431612
P_10 0.415952 0.521360 0.504488 0.551147 0.612641 0.697371
P_10 0.775243 0.861040 0.967408 1.052883 1.090485 1.144725
P_10 1.144593 1.203425 1.229013 1.095521 1.114408 1.043150
P_10 0.954689 1.109533 0.999986 0.940245 1.003446 0.929433
P_10 0.990587 0.998901 0.935283 0.981011 0.994132 0.971310
P_10 1.043195 1.048543 1.004782 1.061859 1.042365 1.076154
P_10 1.078160 0.964288 0.976398 0.919048 0.806686 0.729803
P_10 0.636595 0.632789 0.520971 0.502542 0.458716 0.476277
P_10 0.443031 0.459947 0.511400 0.606296 0.682189 0.715761
P_10 0.737823 0.960434 0.985091 1.017357 1.078498 1.165015
P_10 1.107030 1.163880 1.081101 1.170144 1.227555 1.067342
P_10 1.037818 1.045586 0.988593 0.948428 0.973911 0.972496
P_10 0.968485 0.923347 0.984406 0.955984 0.869661 0.994747
P_10 1.024618 1.058160 1.018748 1.026828 1.090659 1.000782
P_10 0.959741 1.021026 0.930313 0.867320 0.865119 0.744502
P_10 0.710058 0.624828 0.546530 0.513800 0.503064 0.495585
P_10 0.457009 0.494593 0.547267 0.683970 0.703780 0.849272
P_10 0.888834 1.052706 1.094996 1.139492 1.260466 1.236088
P_10 1.359022 1.310140 1.259620 1.197869 1.266253 1.317813
P_10 1.200598 1.283138 1.095668 1.037372 1.001221 0.937735
P_10 0.925712 0.986018 0.956376 0.991865 1.051459 0.964374
P_10 1.105101 0.991469 1.040860 0.977191 1.024745 1.075636
P_10 0.903728 0.969339 0.854325 0.798532 0.872413 0.753490
P_10 0.648724 0.682923 0.614821 0.582760 0.534854 0.508414
P_10 0.530760 0.475411 0.475106 0.561487 0.583598 0.604462
P_10 0.669477 0.754549 0.767646 0.889645 0.998981 0.881282
P_10 1.045210 1.079879 1.076152 1.106815 1.096368 1.041477
P_10 1.048592 1.102631 1.040881 1.008922 0.998625 1.055674
P_10 1.003099 1.008900 1.038150 1.075413 1.018271 0.981790
P_10 1.066128 0.976716 1.002129 1.048673 0.965954 0.893278
P_10 0.906071 0.859603 0.836963 0.819349 0.717404 0.674930
P_10 0.685044 0.588032 0.537871 0.563670 0.528561 0.543957
P_10 0.453860 0.507514 0.492164 0.483366 0.526693 0.575413
P_10 0.535675 0.581957 0.654120 0.726245 0.842834 0.914014
P_10 0.858483 0.939319 0.954443 1.001168 1.040752 1.049612
P_10 1.084957 0.998378 1.041768 0.988923 0.963406 0.809496
P_10 0.945048 0.847376 0.893016 0.846158 0.936849 0.977736
P_10 0.928899 0.962580 0.913500 0.954213 0.984215 0.945605
P_10 0.962232 0.878070 0.868897 0.840956 0.810597 0.680312
P_10 0.676426 0.599715 0.547235 0.494006 0.450064 0.502191
P_10 0.492624 0.466682 0.495809 0.576771 0.629178 0.707073
P_10 0.771018 0.868699 0.952290 0.968951 1.118084 1.080405
P_10 1.211428 1.166582 1.276989 1.211946 1.232834 1.279105
P_10 1.205599 1.174224 1.009737 1.008680 0.963664 0.859657
P_10 0.859989 0.869572 0.984956 0.826963 0.897664 0.897278
P_10 0.844782 0.937848 1.031540 0.967692 1.178379 1.190546
P_10 0.989142 1.064051 0.857149 0.882168 0.835493 0.744145
P_10 0.740212 0.596679 0.590462 0.483897 0.436413 0.480873
P_10 0.448359 0.453492 0.532261 0.615844 0.634098 0.623274
P_10 0.789957 0.820027 0.917154 0.990670 0.960253 1.105721
P_10 1.125900 1.151152 1.233195 1.228181 1.224955 1.163739
P_10 1.038391 1.092905 0.971511 0.986103 0.962137 0.968266
P_10 0.881114 0.924408 0.922796 0.852995 0.957897 0.968627
P_10 1.054694 1.033113 0.979374 1.053176 1.033495 1.012751
P_10 0.997039 1.019298 0.926747 0.854111 0.866167 0.736489
P_10 0.638920 0.558321 0.544950 0.529129 0.457976 0.461643
P_10 0.440915 0.440556 0.552272 0.522276 0.619460 0.784346
P_10 0.781241 0.892442 0.846889 1.096254 1.154609 1.041813
P_10 1.140862 1.241868 1.238908 1.158395 1.150307 1.194724
P_10 1.119916 1.046137 1.030926 1.007242 1.073813 0.957498
P_10 1.011740 0.858232 1.006101 0.940473 1.055492 1.073512
P_10 1.031252 0.972795 1.023372 1.001710 0.987287 1.084491
P_10 1.028840 0.920176 0.946204 0.822615 0.845662 0.722058
P_10 0.695632 0.676682 0.536538 0.499864 0.484771 0.473861
P_10 0.438542 0.471747 0.558747 0.596618 0.616195 0.776571
P_10 0.809143 0.885799 0.895625 0.986183 1.029120 1.087691
P_10 1.169090 1.202324 1.132118 1.247686 1.135151 1.103775
P_10 1.061720 1.049255 1.014453 1.027426 0.984391 0.938598
P_10 0.866262 0.960836 0.929238 1.016621 0.937977 1.008335
P_10 1.009147 1.078674 1.033168 1.085645 1.040142 1.116334
P_10 0.965282 0.974759 0.960735 0.883372 0.864243 0.762424
P_10 0.712480 0.607941 0.609824 0.524155 0.508031 0.481154
P_10 0.468049 0.541981 0.588847 0.633911 0.714935 0.719035
P_10 0.914587 1.039123 1.116312 1.258157 1.250718 1.386442
P_10 1.223810 1.319552 1.282554 1.274840 1.188733 1.262213
P_10 1.167027 1.076069 1.100540 1.031319 1.046597 1.055224
P_10 0.973928 1.005472 0.979022 0.979865 0.978046 1.093690
P_10 0.963388 1.034762 1.074772 1.027519 1.158575 1.044904
P_10 0.992488 0.996267 0.900238 0.827320 0.808026 0.719802
P_10 0.753369 0.616057 0.641465 0.598030 0.565674 0.528525
P_10 0.501920 0.508309 0.530970 0.530668 0.593350 0.631947
P_10 0.683596 0.810457 0.882119 0.967475 0.899874 1.093721
P_10 1.117570 1.046186 1.180396 1.171181 1.264352 1.115728
P_10 1.083023 1.063987 1.136613 1.064909 1.026443 1.078737
P_10 1.100054 1.008688 0.887302 0.983015 1.018299 0.940310
P_10 1.045862 1.006765 0.988250 1.075208 0.930132 0.931853
P_10 0.874140 0.857062 0.787873 0.824461 0.725306 0.721274
P_10 0.752081 0.679021 0.627874 0.541472 0.552335 0.522886
P_10 0.526412 0.514540 0.472901 0.513100 0.519018 0.519420
P_10 0.578678 0.620693 0.660240 0.726912 0.817744 0.835211
P_10 0.929640 0.904070 0.995125 1.103102 1.103821 0.986049
P_10 1.092568 1.009759 1.140979 0.957263 1.020771 0.847719
P_10 0.905822 0.927282 0.897232 0.895564 0.927706 0.953868
P_10 1.037629 1.005891 1.072094 0.996082 1.047564 0.991484
P_10 0.990574 0.929266 0.831634 0.743463 0.805193 0.711460
P_10 0.616644 0.624760 0.554473 0.492095 0.467356 0.427548
P_10 0.429541 0.454166 0.512122 0.595758 0.621507 0.683666
P_10 0.737006 0.909415 1.005939 1.068389 1.087564 1.244958
P_10 1.252170 1.274837 1.208144 1.145942 1.213017 1.155850
P_10 1.144351 1.247073 1.057650 1.093147 0.950762 0.879832
P_10 0.944079 0.896911 0.889186 0.899468 0.889667 0.880890
P_10 1.025190 0.933483 1.006263 1.043742 1.072473 1.027095
P_10 1.073357 0.999945 0.965228 0.871744 0.843374 0.729331
P_10 0.722501 0.550762 0.543458 0.586562 0.481726 0.475912
P_10 0.494160 0.460514 0.504644 0.630296 0.682354 0.671188
P_10 0.764442 0.877876 0.922558 0.964671 0.972285 1.128262
P_10 1.318439 1.185676 1.186067 1.199351 1.219881 1.124702
P_10 1.029677 1.153837 1.006244 1.030606 1.032201 0.929877
P_10 0.975991 0.874234 0.945499 0.964664 0.921347 0.989552
P_10 0.989215 1.001167 1.113216 1.012381 1.011194 1.207534
P_10 1.121159 0.966648 0.990762 0.909304 0.828693 0.745035
P_10 0.680514 0.601941 0.571973 0.528733 0.471865 0.474069
P_10 0.459037 0.509404 0.545966 0.601194 0.697558 0.811141
P_10 0.771469 0.947739 0.995608 0.990745 1.203681 1.084104
P_10 1.286719 1.069097 1.257606 1.220580 1.237127 1.138126
P_10 1.110626 1.150225 1.152327 1.017393 0.864521 0.912013
P_10 0.977288 0.967236 1.020940 0.981498 1.032589 0.993312
P_10 1.082847 1.068854 1.056166 1.059628 1.036059 1.037010
P_10 1.008651 0.987800 0.920578 0.907696 0.801621 0.773572
P_10 0.684173 0.633536 0.565975 0.507987 0.504445 0.446021
P_10 0.462363 0.525079 0.519533 0.613670 0.665239 0.760177
P_10 0.866111 0.950049 0.973919 1.052814 1.102339 1.075279
P_10 1.194128 1.126940 1.224468 1.166384 1.206995 1.060906
P_10 1.100705 1.023408 1.009716 0.951760 0.907581 0.920536
P_10 0.913691 0.982408 0.962846 0.954452 1.076081 1.033041
P_10 1.020829 1.006090 1.046719 1.111922 0.991772 1.064604
P_10 1.056827 0.976344 0.941646 0.887971 0.950237 0.741325
P_10 0.748656 0.733247 0.608103 0.579034 0.481139 0.511119
P_10 0.477255 0.580662 0.566732 0.586470 0.731620 0.812144
P_10 0.844227 0.994874 1.104839 1.097019 1.217655 1.324521
P_10 1.339737 1.415748 1.306632 1.316978 1.404780 1.300941
P_10 1.248553 1.103994 1.117755 1.083586 1.048648 0.957808
P_10 0.874763 0.974080 1.057037 0.996256 1.138903 0.950343
P_10 1.156826 0.991155 1.034776 1.095130 1.082958 0.938500
P_10 1.032366 1.009968 0.917202 0.912856 0.789995 0.792137
P_10 0.739795 0.687134 0.661549 0.623416 0.566287 0.514924
P_10 0.509714 0.491969 0.555739 0.583772 0.575230 0.644666
P_10 0.665106 0.762941 0.824436 0.920966 0.964822 1.047394
P_10 1.142430 1.113781 1.083711 1.145661 1.147167 1.203471
P_10 1.110263 1.160860 1.075606 1.123347 1.117247 1.044987
P_10 1.067521 0.999348 1.012952 0.986811 1.111216 0.966419
P_10 0.976781 0.983187 1.011677 0.991944 1.049466 1.002153
P_10 1.006079 0.896440 0.868962 0.831357 0.796798 0.702915
P_10 0.680228 0.673141 0.619692 0.575661 0.543212 0.550315
P_10 0.482484 0.468723 0.488950 0.492748 0.552920 0.584975
P_10 0.607954 0.661892 0.727980 0.675606 0.798058 0.917099
P_10 0.938661 0.950505 1.124151 1.041072 1.060897 1.103037
P_10 1.015358 1.056776 0.955682 1.072453 1.028496 1.047554
P_10 0.940612 0.990754 1.007575 0.907929 0.944591 1.021639
P_10 0.997924 0.993954 1.092966 1.045034 1.007084 1.017294
P_10 0.895832 0.966566 0.803908 0.875144 0.774005 0.720792
P_10 0.691800 0.677541 0.577200 0.572757 0.486523 0.452457
P_10 0.451072 0.476784 0.549469 0.624545 0.597848 0.740271
P_10 0.931473 0.898255 0.971122 0.935316 0.984842 1.181483
P_10 1.102557 1.347488 1.227092 1.322062 1.325611 1.288522
P_10 1.259081 1.170424 1.124429 1.082375 1.012047 0.895507
P_10 0.862663 0.922176 0.896962 0.908746 0.930179 0.895481
P_10 0.992835 0.977622 1.120346 0.908356 1.027011 1.062030
P_10 1.046995 1.048368 1.006523 0.944940 0.919992 0.786034
P_10 0.717627 0.586911 0.610295 0.509474 0.497198 0.474384
P_10 0.488961 0.501110 0.520804 0.585610 0.705094 0.751739
P_10 0.862347 0.897716 0.934034 1.120085 1.194246 1.087416
P_10 1.259381 1.295307 1.254588 1.158326 1.116676 1.109575
P_10 1.102140 1.191989 1.016761 1.007432 0.949603 1.027460
P_10 0.958500 0.967637 0.985267 0.928917 1.025098 0.994611
P_10 1.031377 1.026205 1.102291 1.101904 1.043212 1.104503
P_10 1.047442 0.957256 1.002284 0.871605 0.890755 0.736388
P_10 0.725483 0.633574 0.575250 0.545263 0.459755 0.474191
P_10 0.489235 0.521235 0.594042 0.561486 0.709675 0.731431
P_10 0.855521 0.885413 0.963930 1.100104 1.063903 1.145099
P_10 1.174375 1.253492 1.343013 1.122600 1.283380 1.282206
P_10 1.108184 1.137298 1.045575 1.113897 1.008498 0.977312
P_10 1.006862 1.044646 0.962311 0.917618 0.911644 0.997135
P_10 1.039039 0.940385 1.004882 1.135625 1.019558 1.009829
P_10 1.075011 0.963932 0.967938 0.933839 0.827151 0.738727
P_10 0.697325 0.627034 0.554896 0.519836 0.495027 0.476905
P_10 0.492894 0.473375 0.535288 0.580619 0.666535 0.731356
P_10 0.834557 0.916163 0.929150 1.155634 1.089559 1.229947
P_10 1.161103 1.215586 1.256502 1.244746 1.243309 1.196765
P_10 1.197811 1.108790 1.012674 1.026486 1.047198 1.055667
P_10 0.988626 0.963115 1.058469 1.074057 1.058988 1.019784
P_10 1.082653 1.054212 1.109425 1.143008 1.034846 1.136225
P_10 1.030564 0.977841 0.940988 0.871326 0.881192 0.791509
P_10 0.753675 0.684987 0.596423 0.454676 0.451432 0.526796
P_10 0.529689 0.531547 0.600410 0.692948 0.792801 0.804039
P_10 0.863480 1.071057 1.094523 1.184905 1.231094 1.371816
P_10 1.519153 1.386405 1.291986 1.370762 1.438131 1.277655
P_10 1.315302 1.278456 1.229033 1.125495 1.082999 1.052934
P_10 1.049158 1.061736 0.997395 1.028658 1.130635 1.052581
P_10 1.058147 1.057204 1.109843 1.147419 0.988161 1.059197
P_10 0.941841 1.001571 0.970641 0.969643 0.931199 0.784093
P_10 0.752057 0.665312 0.648028 0.623883 0.570908 0.523267
P_10 0.545695 0.519155 0.521417 0.560349 0.520456 0.696670
P_10 0.756775 0.753494 0.850121 0.781069 0.976551 0.941418
P_10 1.191917 1.210093 1.170752 1.265984 1.116513 1.132560
P_10 1.127960 1.134822 1.117770 1.208757 1.137911 1.037960
P_10 1.045010 0.935447 1.091570 1.073037 1.038296 1.038040
P_10 0.995094 1.031338 1.162244 1.039281 0.923554 0.883779
P_10 0.932449 0.921817 0.826913 0.794427 0.774272 0.820196
P_10 0.736210 0.647277 0.664630 0.585429 0.521306 0.511995
P_10 0.485960 0.537743 0.511807 0.508113 0.526544 0.595597
P_10 0.583276 0.623278 0.713859 0.756408 0.883256 0.932269
P_10 0.993990 1.050543 0.989122 1.201266 1.146641 1.194585
P_10 1.115075 1.103903 0.959076 0.926472 1.065434 1.004752
P_10 0.953531 0.965301 0.830539 0.927264 0.912320 1.007113
P_10 0.981922 1.085281 0.991096 0.990944 1.033060 1.016679
P_10 1.056736 1.062803 0.921985 0.841795 0.787985 0.792868
P_10 0.726660 0.588476 0.519567 0.531058 0.491898 0.514202
P_10 0.485658 0.483329 0.555017 0.627507 0.669086 0.750621
P_10 0.835126 0.841937 0.956244 1.085098 1.121345 1.338420
P_10 1.247343 1.278273 1.459884 1.259653 1.318311 1.291536
P_10 1.285573 1.186409 1.119726 1.068807 1.085519 0.943049
P_10 1.036319 0.964748 0.968905 0.976741 0.790812 1.087273
P_10 1.007088 1.158333 1.116484 1.147646 1.142791 1.193788
P_10 1.120245 1.042819 1.029532 0.921583 0.832679 0.848225
P_10 0.719558 0.648096 0.607499 0.591526 0.490304 0.499401
P_10 0.470894 0.519904 0.591404 0.621248 0.654955 0.751766
P_10 0.788784 0.952789 1.098634 1.108545 1.228513 1.188729
P_10 1.182587 1.242985 1.251706 1.224893 1.242903 1.166705
P_10 1.250248 1.085032 1.087088 1.106580 1.015477 0.899573
P_10 0.996491 1.012238 0.995054 0.970481 1.074144 1.032696
P_10 0.916642 1.119944 1.128819 1.177769 1.092311 1.165100
P_10 1.067718 1.035697 1.034423 0.923461 0.882245 0.788912
P_10 0.674843 0.655263 0.571164 0.502562 0.489793 0.479358
P_10 0.487445 0.476700 0.594916 0.618862 0.667333 0.714420
P_10 0.823242 0.909060 1.070801 1.060981 1.216478 1.142024
P_10 1.272540 1.255667 1.267141 1.208885 1.182200 1.205126
P_10 1.130328 1.129750 1.091302 0.941394 1.106069 1.097774
P_10 1.041167 1.014310 1.027894 0.983079 1.090337 1.051018
P_10 1.106122 1.233606 1.159557 1.103904 1.150718 1.200693
P_10 1.086164 1.023776 0.923510 0.966489 0.872140 0.798973
P_10 0.697871 0.610807 0.618739 0.552975 0.488292 0.503812
P_10 0.495499 0.539682 0.545630 0.651755 0.653774 0.669420
P_10 0.791340 0.942654 0.970165 1.082749 1.178574 1.216305
P_10 1.225200 1.160087 1.210298 1.254610 1.229120 1.122689
P_10 1.079320 1.087502 1.070024 1.001046 1.056359 0.986718
P_10 1.018827 1.044741 0.979154 0.968715 1.004435 1.103515
P_10 1.024759 1.118503 1.120044 1.177790 0.989827 1.090767
P_10 1.030917 1.053236 1.049235 0.928898 0.859507 0.804716
P_10 0.804803 0.705992 0.601136 0.582023 0.542293 0.569839
P_10 0.534793 0.517926 0.580127 0.678531 0.726278 0.870698
P_10 0.945285 1.027819 1.189361 1.268352 1.424558 1.320155
P_10 1.412327 1.336444 1.341676 1.334650 1.373352 1.318483
P_10 1.237400 1.154570 1.155623 1.135902 1.042733 1.075714
P_10 1.109539 1.059791 1.083148 1.070473 1.138367 1.104040
P_10 1.037843 1.119681 1.033585 1.106163 1.111457 1.129136
P_10 1.098720 1.067847 0.980760 0.927720 0.864696 0.788444
P_10 0.713863 0.731658 0.655010 0.583342 0.629709 0.536680
P_10 0.527244 0.557356 0.562825 0.631606 0.540920 0.651480
P_10 0.759181 0.748401 0.838353 0.981189 1.023498 1.070080
P_10 1.081541 1.089378 1.216096 1.216004 1.200316 1.251935
P_10 1.143642 1.133782 1.149037 1.079136 1.095015 1.177671
P_10 0.979940 1.017739 1.040632 1.068470 1.037297 0.972900
P_10 1.050485 1.162164 1.083443 1.012393 1.044663 1.047220
P_10 1.060583 0.899002 0.871295 0.815516 0.779402 0.783254
P_10 0.708913 0.642602 0.655618 0.621119 0.543052 0.547440
P_10 0.540110 0.559025 0.509659 0.501935 0.569699 0.600521
P_10 0.619273 0.681496 0.743457 0.827760 0.918175 0.941501
P_10 0.962341 1.038760 1.108408 1.154406 1.223827 1.197890
P_10 1.210016 1.124821 1.046522 1.020255 1.072760 0.996594
P_10 0.987975 0.930683 0.891345 1.013670 0.912594 0.923543
P_10 1.020898 0.979615 0.969700 1.060097 1.110292 1.109860
P_10 1.146933 0.968259 0.938486 0.927755 0.865697 0.761060
P_10 0.716503 0.611465 0.618632 0.521138 0.497746 0.477523
P_10 0.496468 0.543285 0.595583 0.577620 0.606827 0.787211
P_10 0.846292 0.870155 1.028834 1.140114 1.124831 1.269944
P_10 1.310361 1.282253 1.263040 1.444023 1.233992 1.429231
P_10 1.216580 1.208711 1.138190 1.030252 1.018658 1.029394
P_10 1.026217 0.979099 0.885714 0.964770 1.014634 1.029769
P_10 1.004053 1.120956 1.119903 1.044876 1.194095 1.164922
P_10 1.117636 1.061302 1.048856 0.954802 0.918694 0.846220
P_10 0.610461 0.720555 0.590180 0.567799 0.546192 0.499884
P_10 0.531287 0.541262 0.611606 0.567781 0.639260 0.723546
P_10 0.792211 0.922375 1.013730 1.024693 1.201642 1.221046
P_10 1.118286 1.313047 1.198158 1.250751 1.259351 1.329976
P_10 1.257656 1.248866 1.037603 1.005123 0.961344 0.915997
P_10 1.037612 1.054175 1.026464 0.984354 0.958399 1.060997
P_10 0.997768 1.140210 1.161236 1.203371 1.108705 1.045190
P_10 1.102832 1.039740 1.044970 0.986882 0.865310 0.827678
P_10 0.692940 0.723750 0.609435 0.524980 0.563194 0.507348
P_10 0.531274 0.533773 0.568464 0.661471 0.732606 0.788793
P_10 0.816081 0.981230 1.032145 1.048579 1.273381 1.274515
P_10 1.163765 1.424678 1.304061 1.287547 1.192400 1.164264
P_10 1.176501 1.272990 1.157069 1.071147 1.031144 1.074737
P_10 1.068509 0.960505 1.082865 1.006348 1.056477 1.026072
P_10 1.019221 1.090650 1.119591 1.192948 1.111231 1.066521
P_10 1.010411 1.038900 1.068251 0.938288 0.921651 0.814907
P_10 0.715233 0.583070 0.638257 0.537351 0.458035 0.480350
P_10 0.507490 0.509183 0.584396 0.670466 0.689587 0.784740
P_10 0.910414 0.981486 0.954620 1.134667 1.290127 1.325744
P_10 1.337987 1.364885 1.353600 1.283123 1.227393 1.150601
P_10 1.071277 1.184051 1.107711 1.030247 0.998154 0.920284
P_10 0.996370 1.051488 1.023678 1.090199 1.068290 1.105416
P_10 1.025513 1.165130 1.089500 1.153991 1.237894 1.122005
P_10 1.150144 1.175441 1.022852 0.972432 0.828819 0.845555
P_10 0.741610 0.682924 0.668474 0.572923 0.523747 0.568977
P_10 0.550749 0.515916 0.612201 0.735785 0.791018 0.832987
P_10 0.991464 1.058106 1.263054 1.223225 1.473238 1.402393
P_10 1.399212 1.488303 1.562968 1.328172 1.516842 1.420864
P_10 1.213344 1.262764 1.149104 1.135713 1.121446 1.041825
P_10 1.031594 1.029347 1.021917 1.067756 1.112836 1.224286
P_10 1.052046 1.193442 1.224234 1.095956 1.205317 1.074661
P_10 1.107336 1.111170 1.028155 0.852044 0.843369 0.837611
P_10 0.816831 0.713684 0.682099 0.627860 0.632859 0.604779
P_10 0.483659 0.505385 0.557223 0.593487 0.693692 0.667041
P_10 0.810836 0.795311 0.859185 0.917205 1.033808 0.970863
P_10 1.161640 1.197365 1.221476 1.164061 1.288241 1.259372
P_10 1.227511 1.198929 1.151470 1.192817 1.189836 1.111920
P_10 1.101837 1.034918 1.083667 1.084698 1.142207 1.102027
P_10 1.122429 1.163541 1.002720 1.066209 1.070430 0.997307
P_10 1.061529 0.887298 0.911476 0.927133 0.832957 0.750537
P_10 0.716724 0.696376 0.616103 0.639341 0.600865 0.597388
P_10 0.552326 0.603736 0.476616 0.538710 0.579038 0.636611
P_10 0.602269 0.659637 0.725494 0.777770 0.851413 0.971924
P_10 0.972625 1.078777 1.065368 1.102761 1.131250 1.126581
P_10 1.096536 1.206282 1.156507 0.996768 1.101497 1.029994
P_10 1.047977 0.940604 0.981969 0.917467 1.049377 0.984812
P_10 1.076942 1.086481 1.014599 1.091924 1.122832 1.086476
P_10 1.115826 1.084132 0.991086 0.946819 0.830086 0.865644
P_10 0.743473 0.603951 0.637064 0.515041 0.542280 0.532554
P_10 0.514885 0.533734 0.548125 0.627873 0.672938 0.775040
P_10 0.824978 0.952069 1.036236 1.143064 1.260500 1.277655
P_10 1.247124 1.264559 1.461557 1.326306 1.392997 1.230879
P_10 1.324833 1.151553 1.097034 1.169260 1.094837 0.994187
P_10 1.008279 0.975833 1.025294 0.967937 1.000858 0.990006
P_10 1.093228 1.056471 1.132618 1.241785 1.132106 1.075320
P_10 1.024962 1.127096 1.047868 0.970652 0.912911 0.840873
P_10 0.799469 0.639650 0.681346 0.565616 0.480753 0.527537
P_10 0.489000 0.541554 0.554015 0.596904 0.698166 0.729586
P_10 0.853068 0.989224 1.066512 1.141789 1.128119 1.320524
P_10 1.189975 1.370492 1.296104 1.333590 1.198739 1.191962
P_10 1.207831 1.222620 1.072323 1.116734 1.035680 1.039113
P_10 1.001400 1.037365 0.944607 0.969041 1.089158 1.062057
P_10 1.070529 1.105545 1.121616 1.152696 1.209272 1.184656
P_10 1.262983 1.188035 1.066382 0.976803 0.938420 0.827548
P_10 0.766208 0.640596 0.556528 0.551630 0.496764 0.497439
P_10 0.512561 0.494612 0.604577 0.667416 0.675264 0.797650
P_10 0.884466 0.932577 0.988716 1.041033 1.212162 1.220225
P_10 1.246783 1.199784 1.427936 1.240350 1.389230 1.326056
P_10 1.295117 1.224935 1.256990 1.232527 1.051742 1.125443
P_10 1.021534 1.089478 1.032551 1.074354 1.084065 1.069950
P_10 1.084707 1.155899 1.206339 1.089634 1.157139 1.210821
P_10 1.156402 1.079016 1.033215 0.936783 0.883525 0.840807
P_10 0.737152 0.731414 0.644000 0.541439 0.537583 0.445703
P_10 0.495248 0.527737 0.546857 0.598059 0.765970 0.842698
P_10 0.898979 1.002094 1.080208 1.104056 1.074380 1.399439
P_10 1.288323 1.334928 1.359034 1.220605 1.319249 1.167817
P_10 1.115158 1.201441 1.199060 1.075469 1.098468 1.059110
P_10 0.971702 1.023064 1.151812 0.974322 1.050018 1.083343
P_10 1.133605 1.113847 1.157975 1.239767 1.191974 1.167289
P_10 1.102673 1.148679 1.069434 1.038630 0.885274 0.873302
P_10 0.765936 0.719164 0.635449 0.604604 0.553383 0.519653
P_10 0.586064 0.578702 0.634207 0.715218 0.827805 0.892321
P_10 1.020464 1.110920 1.269089 1.397743 1.372665 1.249419
P_10 1.259299 1.423627 1.464926 1.272033 1.468515 1.173742
P_10 1.392762 1.234561 1.282643 1.196780 1.155875 1.101153
P_10 1.147078 1.143470 1.136388 1.241499 1.197181 1.070194
P_10 1.145779 1.216886 1.155980 1.091634 1.186049 1.020538
P_10 1.046400 1.098767 1.009689 0.931641 0.909528 0.849897
P_10 0.911140 0.731994 0.693537 0.630615 0.622760 0.642592
P_10 0.596958 0.568204 0.549118 0.590888 0.691299 0.708448
P_10 0.777343 0.895998 0.877603 0.957872 1.032325 1.213342
P_10 1.132249 1.187056 1.206588 1.206394 1.224359 1.230300
P_10 1.252060 1.110752 1.049262 1.080191 1.184411 1.195455
P_10 1.121566 1.087005 1.148971 1.137138 1.226121 1.156515
P_10 1.127338 1.210864 1.146597 1.085285 1.070816 1.086455
P_10 0.993306 0.984411 0.964563 0.878773 0.740177 0.762015
P_10 0.764477 0.700857 0.653256 0.618011 0.529819 0.593416
P_10 0.601566 0.524555 0.569005 0.609877 0.588144 0.605241
P_10 0.641821 0.745941 0.761267 0.828522 0.834896 0.956390
P_10 0.999101 1.135237 1.097675 1.043701 1.286057 1.168606
P_10 1.142108 1.119086 1.098977 1.121057 1.094818 1.175989
P_10 0.928260 1.093619 0.928628 1.004620 1.050804 0.978374
P_10 1.014439 1.075167 1.183597 1.050160 0.936293 1.074085
P_10 1.082079 1.065444 1.046446 0.986219 0.812881 0.781916
P_10 0.729549 0.636924 0.630306 0.596841 0.571782 0.468173
P_10 0.510595 0.540961 0.620389 0.625718 0.699682 0.791973
P_10 0.863523 0.971537 1.015002 1.122847 1.281278 1.393253
P_10 1.387044 1.352039 1.377691 1.410408 1.319561 1.382477
P_10 1.291772 1.315605 1.213112 1.170122 1.133355 1.002351
P_10 1.065382 0.959617 0.965014 1.005147 1.036589 1.037494
P_10 1.136056 1.099407 1.041277 1.121136 1.225671 1.113274
P_10 1.207287 1.021385 1.034344 0.985515 0.959928 0.820845
P_10 0.773547 0.649588 0.619749 0.541991 0.563866 0.498743
P_10 0.551966 0.519406 0.600591 0.648944 0.767555 0.742741
P_10 0.854374 0.918735 1.025987 1.112824 1.181580 1.203148
P_10 1.304215 1.398274 1.271215 1.305911 1.230446 1.221434
P_10 1.165724 1.217776 1.194437 1.181182 1.064464 1.135702
P_10 1.034964 0.994600 1.032236 1.046829 1.098746 1.040035
P_10 0.980971 1.176568 1.163574 1.208936 1.198051 1.179492
P_10 1.168041 1.242527 0.984239 0.966960 0.955671 0.777885
P_10 0.730520 0.709368 0.587594 0.571065 0.492087 0.504786
P_10 0.551272 0.508116 0.594782 0.656627 0.815513 0.729849
P_10 0.833976 1.011581 0.928679 1.109165 1.174516 1.306510
P_10 1.274517 1.284173 1.336793 1.330996 1.351235 1.245157
P_10 1.203829 1.150509 1.242815 1.274941 1.124749 1.041990
P_10 1.042949 1.119177 1.077364 1.026376 1.023428 1.128440
P_10 1.242779 1.164343 1.191536 1.243009 1.168277 1.181607
P_10 1.171933 1.224748 1.112010 1.009055 0.931186 0.889915
P_10 0.744732 0.723905 0.591432 0.637018 0.555542 0.505690
P_10 0.499309 0.567964 0.699425 0.673952 0.759860 0.789817
P_10 0.800886 0.998547 1.149972 1.189784 1.101484 1.279511
P_10 1.348581 1.423060 1.280329 1.185472 1.247249 1.287810
P_10 1.204542 1.185384 1.079409 1.203594 1.008452 1.189688
P_10 1.023527 0.928663 1.032126 1.140503 1.106271 1.190099
P_10 1.138532 1.242823 1.153029 1.182456 1.047438 1.296221
P_10 1.096425 1.172597 0.974235 0.960851 0.894803 0.878688
P_10 0.779509 0.716121 0.774775 0.644012 0.538129 0.520612
P_10 0.554286 0.533877 0.639660 0.705085 0.736570 0.923071
P_10 1.081031 1.127537 1.216453 1.276087 1.278990 1.403885
P_10 1.485114 1.572024 1.484074 1.511192 1.290510 1.322391
P_10 1.335574 1.202125 1.181000 1.174714 1.022101 1.159164
P_10 1.168563 1.089996 1.101645 1.050292 1.225534 1.197329
P_10 1.117000 1.210839 1.209746 1.184367 1.121754 1.137843
P_10 1.116963 1.031475 1.050955 1.070454 0.906960 0.850623
P_10 0.857833 0.782977 0.689755 0.654302 0.641089 0.627061