; Filename: networks/Net1.inp
; WNTR: 0.1.6
; Created: 2019-04-09 13:29:02
[TITLE]
EPANET Example Network 1
A simple example of modeling chlorine decay. Both bulk and
wall reactions are included.

[JUNCTIONS]
;ID                      Elevation       Demand Pattern                 
 10                               710               0                            ;
 11                               710               0                            ;
 12                               700               0                            ;
 13                               695               0                            ;
 21                               700               0                            ;
 22                               695               0                            ;
 23                               690               0                            ;
 31                               700               0                            ;
 32                               710               0                            ;

[RESERVOIRS]
;ID                                   Head                  Pattern
 9                                800                            ;

[TANKS]
;ID                              Elevation           Init Level            Min Level            Max Level             Diameter           Min Volume Volume Curve        
 2                                850             120             100             150            50.5               0                        ;

[PIPES]
;ID                   Node1                Node2                              Length             Diameter            Roughness           Minor Loss               Status
 10                   10                   11                             10530              18             100               0                 Open   ;
 11                   11                   12                              5280              14             100               0                 Open   ;
 12                   12                   13                              5280              10             100               0                 Open   ;
 21                   21                   22                              5280              10             100               0                 Open   ;
 22                   22                   23                              5280              12             100               0                 Open   ;
 31                   31                   32                              5280               6             100               0                 Open   ;
 110                  2                    12                               200              18             100               0                 Open   ;
 111                  11                   21                              5280              10             100               0                 Open   ;
 112                  12                   22                              5280              12             100               0                 Open   ;
 113                  13                   23                              5280               8             100               0                 Open   ;
 121                  21                   31                              5280               8             100               0                 Open   ;
 122                  22                   32                              5280               6             100               0                 Open   ;

[PUMPS]
;ID                   Node1                Node2                Properties          
 9                    9                    10                   HEAD     1                      ;

[VALVES]
;ID                   Node1                Node2                            Diameter Type              Setting           Minor Loss

[TAGS]
;type      name       tag       

[DEMANDS]
;ID        Demand     Pattern   
10         0.0        P_10      
11         150.0      P_11      
12         150.0      P_12      
13         100.0      P_13      
21         150.0      P_21      
22         200.0      P_22      
23         150.0      P_23      
31         100.0      P_31      
32         100.0      P_32      

[STATUS]
;ID        Setting   
[PATTERNS]
;ID        Multipliers

1 1.000000 1.200000 1.400000 1.600000 1.400000 1.200000
1 1.000000 0.800000 0.600000 0.400000 0.600000 0.800000

P_10 0.609648 0.568879 0.505318 0.442709 0.443848 0.395768
P_10 0.364082 0.438064 0.455715 0.512346 0.565969 0.614746
P_10 0.764572 0.839550 0.885020 0.942645 1.085817 1.115903
P_10 1.317652 1.267064 1.193729 1.270287 1.348653 1.199152
P_10 1.254303 1.146535 1.107088 0.964160 0.935602 0.994825
P_10 0.853133 0.813564 0.887948 0.959624 0.955023 0.942580
P_10 0.992369 0.970120 1.100414 1.103333 1.114534 1.069238
P_10 1.085682 1.082015 0.980481 0.872929 0.770206 0.732783
P_10 0.654990 0.606908 0.545416 0.460869 0.432744 0.374708
P_10 0.398546 0.410880 0.470407 0.499943 0.590198 0.695156
P_10 0.762312 0.929280 0.903301 1.062341 1.083117 1.131244
P_10 1.214031 1.211390 1.187049 1.172177 1.178791 1.223331
P_10 1.108746 1.122442 0.930172 0.962624 0.943860 0.882571
P_10 0.964954 0.986913 0.905784 0.980188 0.895044 1.056941
P_10 1.092992 1.094530 1.022936 1.098855 1.149178 1.171266
P_10 1.094689 1.058925 0.940875 0.916475 0.811494 0.764137
P_10 0.661156 0.538557 0.476528 0.450690 0.419218 0.408748
P_10 0.416381 0.466338 0.499992 0.544735 0.608222 0.720180
P_10 0.796287 0.908206 0.949449 1.049865 1.119338 1.018258
P_10 1.203107 1.191970 1.272054 1.322143 1.281805 1.172580
P_10 1.181757 1.099981 0.979514 0.996708 1.058669 1.013606
P_10 1.004434 0.920031 1.058798 1.048808 1.004253 1.041719
P_10 1.109007 1.051082 1.044380 1.148416 1.083972 1.087808
P_10 1.032202 1.040386 0.907761 0.907553 0.834055 0.742164
P_10 0.692961 0.566853 0.558917 0.490942 0.432749 0.385461
P_10 0.417707 0.408205 0.460364 0.557267 0.559084 0.698841
P_10 0.819353 0.852375 1.012615 1.021057 1.061999 1.139445
P_10 1.208979 1.284489 1.290370 1.029862 1.343287 0.996841
P_10 0.979556 0.984371 1.162125 0.986263 0.941698 1.033715
P_10 1.033164 0.921342 0.899575 1.042107 0.993305 0.977732
P_10 1.063128 1.099746 1.007694 1.095148 1.039710 1.149227
P_10 1.071778 1.079384 0.966373 0.913023 0.807284 0.818771
P_10 0.612733 0.627403 0.543269 0.487892 0.462624 0.418067
P_10 0.411184 0.448978 0.506969 0.559493 0.727854 0.845762
P_10 0.870762 0.971690 1.031203 1.203362 1.238144 1.378224
P_10 1.293083 1.476258 1.388072 1.432555 1.366827 1.298238
P_10 1.142720 1.095530 1.180332 1.093087 1.093398 1.133606
P_10 0.948304 1.020144 1.047719 1.092639 0.967390 1.064488
P_10 1.090153 1.026187 1.020288 1.183236 1.032402 1.118194
P_10 1.047944 0.976699 0.931717 0.835271 0.871049 0.798836
P_10 0.658057 0.596498 0.582827 0.552327 0.487678 0.470139
P_10 0.437848 0.437077 0.435736 0.439342 0.505548 0.561888
P_10 0.673130 0.734280 0.823696 0.887802 0.924688 1.012840
P_10 1.139227 1.111885 1.133767 1.000656 1.190141 1.227488
P_10 1.068057 1.110375 1.163599 1.070946 1.035140 0.963514
P_10 1.068858 1.073797 1.089742 1.077454 1.044421 1.094418
P_10 1.061303 1.050045 1.054922 1.063351 0.933081 0.995947
P_10 1.008097 0.941479 0.843542 0.708538 0.748302 0.676741
P_10 0.632914 0.579661 0.572776 0.519699 0.526328 0.449509
P_10 0.469775 0.437448 0.450989 0.456172 0.474262 0.516472
P_10 0.524095 0.592387 0.685900 0.704799 0.811548 0.908379
P_10 0.929998 0.999753 0.996083 1.071117 0.971807 0.940165
P_10 1.139902 1.073349 1.027476 1.095063 1.021536 0.854817
P_10 0.935638 0.951375 0.948249 1.014702 1.029531 0.977220
P_10 0.925993 1.029362 1.012775 1.000091 0.988179 1.030396
P_10 0.961472 0.857473 0.949484 0.837795 0.820470 0.701582
P_10 0.623031 0.571660 0.484318 0.455619 0.401994 0.426640
P_10 0.386506 0.386664 0.447326 0.536787 0.555400 0.612988
P_10 0.832248 0.820049 1.047401 1.008440 1.076626 1.144952
P_10 1.228380 1.215642 1.419834 1.293109 1.284280 1.300824
P_10 1.172142 1.131455 1.051473 0.966290 1.061433 0.947950
P_10 0.954703 0.919229 0.866096 0.908656 0.959710 0.914159
P_10 1.005010 1.125749 1.018403 1.118779 1.177827 1.247123
P_10 1.107982 1.033785 0.966086 0.979946 0.839582 0.789333
P_10 0.647844 0.564657 0.535496 0.505838 0.411848 0.434299
P_10 0.386111 0.435129 0.503466 0.541915 0.569188 0.655760
P_10 0.800670 0.858237 0.946928 1.055055 1.089624 1.098459
P_10 1.195665 1.378052 1.258509 1.270805 1.116625 1.043202
P_10 1.024189 1.157082 0.982826 1.052093 0.952516 0.996761
P_10 0.970881 0.902933 0.944490 1.029660 0.991100 1.025083
P_10 1.077915 1.096691 1.082592 1.120513 1.127073 0.977612
P_10 1.105611 1.070141 0.972337 0.885113 0.852937 0.718555
P_10 0.685568 0.615645 0.542718 0.454883 0.440572 0.381013
P_10 0.391360 0.430131 0.523299 0.533773 0.641694 0.682697
P_10 0.836271 0.917347 1.019272 1.011758 1.089706 1.159841
P_10 1.083434 1.241529 1.235519 1.232499 1.150247 1.230688
P_10 1.163055 1.136529 1.183964 1.095426 1.035245 1.107706
P_10 1.015193 1.040524 1.049924 0.957911 1.037083 1.056691
P_10 0.990928 1.001680 1.231497 1.083705 1.148149 1.055311
P_10 1.159057 1.060838 1.012196 0.931035 0.836127 0.825797
P_10 0.668171 0.574029 0.540130 0.471777 0.427491 0.392361
P_10 0.403401 0.454498 0.469988 0.516919 0.565375 0.721512
P_10 0.739499 0.889626 0.933543 1.069228 1.087574 1.111013
P_10 1.167592 1.338511 1.300973 1.227450 1.098266 1.183951
P_10 1.114671 1.078118 1.048421 1.037463 1.073238 0.983386
P_10 0.835142 1.019769 0.953359 0.905160 1.021486 1.107759
P_10 1.121005 1.132848 1.092290 1.128542 1.035267 1.184192
P_10 1.121511 1.094453 0.938091 1.038817 0.848579 0.778948
P_10 0.712502 0.642882 0.547020 0.511694 0.473913 0.380242
P_10 0.465868 0.446697 0.532393 0.621390 0.679343 0.748434
P_10 0.871474 1.070564 1.192705 1.310665 1.186493 1.435349
P_10 1.337287 1.373198 1.313479 1.429284 1.363576 1.265341
P_10 1.293979 1.182358 1.125308 1.058719 1.096482 1.060087
P_10 1.034942 1.042449 1.117929 1.056939 1.135125 1.031510
P_10 1.069986 1.006598 1.058896 1.073423 1.045959 1.094222
P_10 1.151742 0.985375 0.964893 0.913355 0.837635 0.773688
P_10 0.724384 0.658545 0.631987 0.581563 0.514572 0.463259
P_10 0.455122 0.466562 0.463229 0.527438 0.542531 0.557982
P_10 0.688726 0.714939 0.843809 0.982258 0.988105 0.969764
P_10 1.145810 1.069923 1.207363 1.230825 1.156885 1.160391
P_10 1.206061 1.160557 1.129206 1.063119 1.108318 1.059631
P_10 1.091974 1.065698 1.107718 1.031080 1.133210 0.964032
P_10 0.975635 1.056654 1.023542 1.060546 0.984867 0.993941
P_10 0.900081 0.931202 0.823562 0.853866 0.734540 0.711713
P_10 0.652352 0.647611 0.604842 0.501515 0.493092 0.501141
P_10 0.448063 0.428011 0.470557 0.470696 0.495379 0.493166
P_10 0.543849 0.579575 0.692178 0.694348 0.776395 0.842762
P_10 0.852292 0.953516 1.035295 0.997202 1.036046 1.129647
P_10 1.035945 1.113756 0.967112 0.977364 0.944797 0.994455
P_10 0.924683 0.953292 0.948064 0.947658 0.951125 0.990249
P_10 0.971199 0.923169 0.976671 1.166789 1.022668 1.051023
P_10 0.935060 1.008839 0.949666 0.896090 0.806400 0.737646
P_10 0.646918 0.572399 0.502348 0.413274 0.415866 0.358164
P_10 0.403878 0.432027 0.452189 0.480564 0.628493 0.665845
P_10 0.676897 0.884150 0.933781 1.063810 1.086309 1.237149
P_10 1.231438 1.270746 1.296893 1.349374 1.276627 1.327144
P_10 1.176803 1.098557 1.104558 1.083590 0.986940 0.927345
P_10 0.961145 1.001005 0.998662 0.936725 0.885795 1.058044
P_10 1.021735 1.078356 1.087539 1.180242 1.089209 1.120116
P_10 1.096326 1.138752 1.060202 0.914660 0.840929 0.784189
P_10 0.647573 0.647402 0.543183 0.490645 0.455288 0.444000
P_10 0.403426 0.454658 0.471409 0.519050 0.554139 0.653571
P_10 0.856948 0.878569 1.011715 0.974307 1.183094 1.041877
P_10 1.264592 1.192672 1.175796 1.266596 1.167856 1.207172
P_10 1.223378 1.170235 1.108571 1.043352 0.998261 0.935083
P_10 0.956144 1.072196 0.975492 0.926239 0.979335 1.090644
P_10 1.059231 1.080045 1.292769 1.209152 1.181606 1.207284
P_10 1.075142 1.173052 0.960817 0.878710 0.783083 0.775174
P_10 0.649851 0.515101 0.532678 0.463633 0.426440 0.396728
P_10 0.446216 0.456035 0.529123 0.530915 0.641411 0.722833
P_10 0.783095 0.925931 0.967932 1.076106 1.152961 1.071106
P_10 1.135110 1.107478 1.271405 1.217425 1.228847 1.115255
P_10 1.122416 1.163475 1.160211 1.041863 1.047352 1.015483
P_10 1.070062 0.950274 1.021633 1.007707 1.049688 1.021868
P_10 1.080774 1.094825 1.027836 1.120651 1.151263 1.093085
P_10 1.137983 0.960551 0.987535 0.935171 0.895789 0.852654
P_10 0.812806 0.584728 0.507249 0.493264 0.420164 0.424724
P_10 0.450226 0.448470 0.507164 0.531253 0.638792 0.646612
P_10 0.843019 0.876121 0.962265 1.030982 1.019612 1.224726
P_10 1.293754 1.274045 1.156452 1.095465 1.153258 1.109524
P_10 1.159863 1.031303 1.153701 1.035599 0.978202 0.951976
P_10 0.919515 0.887181 0.988204 0.967716 1.132975 1.123196
P_10 1.125063 1.050434 1.107207 1.029214 1.110391 1.163787
P_10 1.136377 1.108047 1.100555 0.990617 0.806862 0.830200
P_10 0.705866 0.632347 0.571194 0.538421 0.456936 0.432704
P_10 0.433124 0.502643 0.532058 0.631409 0.614810 0.844475
P_10 0.913961 0.990011 1.291520 1.189545 1.342527 1.276622
P_10 1.395556 1.419537 1.497465 1.459414 1.358484 1.214604
P_10 1.311699 1.178578 1.111226 1.013827 1.145522 1.087917
P_10 1.073700 1.007320 1.019150 1.122943 1.098308 1.108000
P_10 1.115724 1.103582 1.127154 1.114551 1.028112 1.014349
P_10 1.064749 0.975220 0.979279 0.939150 0.833982 0.843502
P_10 0.765848 0.668213 0.626861 0.591880 0.491117 0.415545
P_10 0.449990 0.477328 0.465852 0.481391 0.536828 0.673612
P_10 0.683258 0.760869 0.861714 0.944960 0.978395 1.056966
P_10 1.169597 1.181547 1.189345 1.188072 1.079850 1.174198
P_10 1.225623 1.184239 1.136041 1.211972 1.069195 1.055301
P_10 1.056763 1.185246 1.052869 1.110401 1.085020 1.136541
P_10 1.149968 1.097044 1.135307 0.995724 1.072846 0.980458
P_10 0.956757 0.918811 0.853129 0.872473 0.778305 0.670105
P_10 0.676490 0.617194 0.538155 0.520401 0.512079 0.432157
P_10 0.450235 0.423443 0.448074 0.415757 0.514653 0.531520
P_10 0.526470 0.597747 0.713052 0.721489 0.744915 0.953331
P_10 0.895966 1.023124 1.041656 1.161643 1.089978 1.091496
P_10 1.108378 1.125411 1.079501 1.063180 1.006308 1.011011
P_10 0.933017 0.960168 0.931386 0.986656 1.101515 0.962427
P_10 0.961854 1.049151 1.121472 0.997409 1.061026 1.090929
P_10 0.968567 0.939941 0.921591 0.858773 0.861155 0.694925
P_10 0.628476 0.610360 0.500077 0.430781 0.458401 0.387972
P_10 0.416685 0.429041 0.481799 0.511557 0.622293 0.590114
P_10 0.744951 0.830275 0.931520 1.095256 1.120293 1.098269
P_10 1.287342 1.315492 1.351958 1.391079 1.280773 1.339572
P_10 1.167543 1.170045 1.099561 1.134048 1.026453 1.056113
P_10 0.947669 1.003016 0.963240 0.979466 0.920051 0.989001
P_10 0.995977 1.003162 1.046027 1.154179 1.146605 1.094289
P_10 1.088201 1.086184 0.965907 0.971404 0.912768 0.863824
P_10 0.677707 0.578733 0.517054 0.488535 0.465614 0.453539
P_10 0.472082 0.455115 0.508100 0.579950 0.633476 0.695427
P_10 0.827278 0.906429 0.913279 0.977286 1.091173 1.233482
P_10 1.194710 1.319361 1.191576 1.244237 1.240565 1.252805
P_10 1.038701 0.961632 1.156775 1.075401 1.090365 1.015692
P_10 0.946058 0.993735 0.943280 1.093966 0.997224 1.071670
P_10 1.034630 1.190606 1.175801 1.105277 1.238198 1.207170
P_10 1.254863 1.047046 0.980969 1.016593 0.916766 0.765916
P_10 0.715974 0.597881 0.498487 0.487048 0.446998 0.423983
P_10 0.410150 0.486018 0.500885 0.584199 0.606163 0.718012
P_10 0.812932 0.872791 0.984941 1.081127 1.218992 1.330043
P_10 1.194624 1.253285 1.228215 1.246298 1.344624 1.219552
P_10 1.219715 1.120132 1.099432 0.982839 1.057403 1.135597
P_10 1.032158 0.930691 0.984800 0.960089 1.024804 1.089705
P_10 1.128544 1.108729 1.169164 1.150321 1.159863 1.196558
P_10 1.094886 1.099233 0.979319 0.919618 0.918192 0.821469
P_10 0.725280 0.648419 0.565262 0.486336 0.440656 0.423494
P_10 0.419870 0.433085 0.486151 0.553529 0.599396 0.777526
P_10 0.865197 0.923360 1.073197 1.127066 1.138462 1.156645
P_10 1.334731 1.239771 1.281757 1.333977 1.300161 1.191227
P_10 1.109332 1.135246 1.143052 1.128686 1.044126 1.023514
P_10 0.992662 0.995096 1.030533 1.039920 1.062203 1.058793
P_10 1.083004 1.090266 1.156017 1.185725 1.237515 1.190856
P_10 1.197368 1.104599 1.075872 0.987859 1.008571 0.809474
P_10 0.734269 0.647679 0.603177 0.505627 0.447443 0.448373
P_10 0.453098 0.502237 0.555351 0.564869 0.668393 0.778355
P_10 0.999626 0.976653 1.176911 1.383964 1.286628 1.361888
P_10 1.430380 1.396814 1.488230 1.440044 1.368730 1.325753
P_10 1.201785 1.268955 1.082335 1.133448 1.243892 1.178696
P_10 1.134636 1.042666 1.075536 1.095074 1.133509 1.204386
P_10 1.196193 1.217759 1.137436 1.134663 1.173062 1.099467
P_10 1.000778 0.991360 1.049793 0.979098 0.862263 0.751823
P_10 0.710955 0.703910 0.589526 0.539124 0.515448 0.511419
P_10 0.446966 0.450965 0.471508 0.537111 0.559622 0.616146
P_10 0.612033 0.805302 0.867159 0.988928 0.931225 1.001629
P_10 1.141688 1.256809 1.253019 1.229193 1.270897 1.221920
P_10 1.213505 1.146874 1.022723 1.008190 1.001896 1.043225
P_10 1.085464 1.060180 1.053475 1.034142 1.078351 1.131861
P_10 1.174082 1.051422 1.177304 1.042185 1.094379 0.974925
P_10 1.017775 0.919940 0.851509 0.861914 0.773241 0.760977
P_10 0.694037 0.664046 0.597787 0.570327 0.553540 0.475393
P_10 0.460855 0.473132 0.481517 0.478476 0.529823 0.534024
P_10 0.578851 0.643085 0.637925 0.775330 0.821478 0.929149
P_10 0.889572 1.059421 1.099937 1.115317 1.187070 1.143593
P_10 1.147667 1.178597 1.026131 1.035115 0.976178 1.084400
P_10 1.056487 1.042104 0.960660 1.031211 0.991732 1.117087
P_10 1.064153 1.107832 1.054959 1.058282 1.098058 0.982457
P_10 1.083828 1.028001 0.889099 0.907482 0.753641 0.728918
P_10 0.722557 0.606377 0.493175 0.472624 0.434355 0.430805
P_10 0.421775 0.403791 0.507942 0.527809 0.571707 0.726659
P_10 0.815667 0.876512 1.018901 1.121062 1.214320 1.210268
P_10 1.372414 1.340225 1.425084 1.426046 1.317714 1.243543
P_10 1.230452 1.180105 1.128252 0.982143 1.015842 0.948200
P_10 0.995454 0.952690 0.956248 0.894865 1.027744 0.884872
P_10 1.027746 1.151211 1.239416 1.304229 1.116519 1.169981
P_10 1.166247 1.160619 1.024618 1.066898 0.948220 0.825059
P_10 0.687233 0.663385 0.524523 0.549509 0.455640 0.421209
P_10 0.452065 0.452150 0.507763 0.596989 0.692727 0.760211
P_10 0.767125 0.909473 0.948055 1.138755 1.287120 1.249933
P_10 1.286943 1.312492 1.351049 1.119194 1.412767 1.250930
P_10 1.251147 1.216317 1.168945 1.037990 1.082679 0.947237
P_10 0.986656 1.046403 1.025403 0.946671 1.091440 1.011090
P_10 1.173994 1.219406 1.166363 1.139197 1.304084 1.219909
P_10 1.261831 1.072359 1.124049 0.975020 0.870084 0.789051
P_10 0.696974 0.630117 0.518968 0.448218 0.503798 0.427535
P_10 0.455048 0.474971 0.544233 0.567613 0.695107 0.699475
P_10 0.761012 0.891026 1.007246 1.118948 1.219290 1.189781
P_10 1.183428 1.404846 1.315764 1.265305 1.225540 1.306672
P_10 1.157562 1.340854 1.242622 1.179614 1.190998 1.025113
P_10 0.984764 1.063318 1.075979 1.062948 1.032745 1.077409
P_10 1.143325 1.150730 1.163268 1.136790 1.173561 1.173804
P_10 1.129517 1.017731 1.091534 0.943751 1.033012 0.849347
P_10 0.725981 0.623379 0.609586 0.528397 0.437096 0.437236
P_10 0.439416 0.441422 0.539629 0.550762 0.681670 0.779011
P_10 0.866583 0.882261 0.938278 1.131911 1.191498 1.144172
P_10 1.273807 1.335866 1.289120 1.319979 1.311122 1.290251
P_10 1.190063 1.221373 1.224305 1.012819 1.031948 1.003321
P_10 0.948037 0.947569 1.051508 0.990243 1.017759 1.065550
P_10 1.199174 1.247116 1.200945 1.214802 1.140121 1.071677
P_10 1.155956 1.138988 0.959456 1.052295 0.989698 0.870183
P_10 0.725746 0.725201 0.555432 0.543697 0.428951 0.408049
P_10 0.515300 0.469328 0.489499 0.607196 0.683694 0.866909
P_10 0.890822 1.037035 1.272287 1.351228 1.285527 1.510481
P_10 1.480724 1.532160 1.597869 1.404947 1.477125 1.419134
P_10 1.310786 1.192827 1.162289 1.212464 1.125396 1.177607
P_10 1.098886 1.049008 1.031217 1.187942 1.037085 1.210635
P_10 1.126791 1.079006 1.207947 1.257081 1.058613 1.161117
P_10 1.186265 1.024246 1.105575 0.961721 0.935887 0.867135
P_10 0.690529 0.752380 0.622266 0.566033 0.504959 0.497904
P_10 0.498001 0.473705 0.483862 0.529000 0.517231 0.612786
P_10 0.747079 0.718306 0.880088 0.953793 1.085586 1.132975
P_10 1.167845 1.195493 1.319649 1.284420 1.320886 1.258407
P_10 1.234921 1.221399 1.133434 1.148130 1.101271 1.011219
P_10 1.158266 1.107186 1.171734 1.166194 1.098552 1.108824
P_10 1.166400 1.051481 1.146303 1.082953 1.120163 1.118628
P_10 1.071175 1.015850 0.811889 0.817977 0.831911 0.749271
P_10 0.633834 0.670066 0.624717 0.553977 0.518164 0.486166
P_10 0.489419 0.445806 0.487891 0.547226 0.526115 0.534094
P_10 0.576248 0.575586 0.693098 0.831281 0.809128 0.925287
P_10 0.994650 0.987704 1.000807 1.086875 1.183320 1.157961
P_10 1.072641 1.189444 1.076633 1.058555 0.945355 0.989431
P_10 1.034577 1.016808 1.001332 0.996456 0.936782 1.019074
P_10 1.108795 1.090973 1.116042 1.108508 0.989513 1.029440
P_10 1.046452 1.015649 0.882398 0.946278 0.825958 0.667378
P_10 0.681937 0.603096 0.554422 0.473185 0.468431 0.449067
P_10 0.435138 0.443045 0.496281 0.585559 0.628315 0.686563
P_10 0.826702 0.928320 1.015634 1.104211 1.172160 1.396777
P_10 1.293785 1.372593 1.450246 1.314404 1.295574 1.406936
P_10 1.306443 1.093966 1.147038 1.078825 0.961209 0.965336
P_10 1.019325 0.978723 0.936988 0.963738 1.066646 1.020136
P_10 1.013912 1.036717 1.077269 1.243043 1.211153 1.088348
P_10 1.008917 1.180613 1.014780 1.090096 0.924241 0.886392
P_10 0.755570 0.665337 0.528440 0.526398 0.467363 0.457162
P_10 0.413270 0.435716 0.575146 0.524939 0.675713 0.697292
P_10 0.790273 0.976260 1.086756 1.206082 1.137243 1.213768
P_10 1.202445 1.314982 1.350588 1.347633 1.385648 1.187249
P_10 1.262912 1.156663 1.068183 1.088607 1.085675 1.059489
P_10 0.991164 1.018540 1.012199 0.950952 1.054683 1.103219
P_10 1.216537 1.196204 1.132498 1.178266 1.097531 1.245625
P_10 1.125733 1.112034 1.037966 0.981916 0.985346 0.745132
P_10 0.696660 0.656834 0.524323 0.491539 0.437710 0.416743
P_10 0.479648 0.496878 0.547988 0.586972 0.670839 0.709322
P_10 0.843831 0.903082 1.023164 1.033766 1.243819 1.210970
P_10 1.218708 1.211475 1.312768 1.303294 1.243548 1.286136
P_10 1.293452 1.291671 1.196962 1.140938 1.213593 1.152894
P_10 0.967132 1.138830 1.007702 1.043882 1.096925 1.100729
P_10 1.144655 1.043819 1.212107 1.193422 1.139066 1.130085
P_10 1.135450 1.182939 1.070069 1.070009 0.878089 0.774712
P_10 0.692521 0.627442 0.540203 0.445467 0.469503 0.436773
P_10 0.455136 0.428117 0.532764 0.582989 0.637275 0.819868
P_10 0.876343 0.931015 1.042248 1.165174 1.330314 1.243865
P_10 1.233141 1.356765 1.388270 1.382077 1.339566 1.281211
P_10 1.212523 1.147349 1.127774 1.093214 1.048217 0.995025
P_10 1.123781 1.087223 1.120624 1.191975 1.066108 1.143919
P_10 1.086085 1.118484 1.051734 1.251128 1.221579 1.190522
P_10 1.170500 1.172277 1.125063 0.991049 1.020585 0.912288
P_10 0.793206 0.681119 0.576223 0.550123 0.501787 0.475138
P_10 0.484713 0.515195 0.614262 0.570523 0.735367 0.812583
P_10 0.962860 1.109023 1.130379 1.238274 1.288070 1.469928
P_10 1.552934 1.536020 1.441532 1.472910 1.258593 1.356726
P_10 1.346064 1.367956 1.226661 1.217295 1.130815 1.053848
P_10 1.147619 1.237483 1.153191 1.156848 1.126467 1.108047
P_10 1.249362 1.203560 1.278058 1.233047 1.201490 1.101915
P_10 1.150343 1.235126 0.884399 1.022951 0.941688 0.849607
P_10 0.831174 0.760419 0.644252 0.616312 0.564668 0.518710
P_10 0.484980 0.528163 0.523783 0.503902 0.603567 0.635669
P_10 0.762693 0.849989 0.880052 0.977686 1.117551 1.036416
P_10 1.255852 1.208748 1.204144 1.254541 1.191461 1.304284
P_10 1.268296 1.136563 1.126166 1.201133 1.110417 1.120766
P_10 1.211221 1.123227 1.141639 1.148077 1.128400 1.179301
P_10 1.213373 1.225758 1.097517 1.048888 1.046510 1.025748
P_10 1.035825 0.875073 0.965624 0.915551 0.859919 0.723245
P_10 0.822269 0.724768 0.541373 0.551640 0.516569 0.471956
P_10 0.513964 0.484627 0.476803 0.455319 0.530618 0.563889
P_10 0.649175 0.605229 0.720298 0.787065 0.893501 0.968803
P_10 1.006443 1.069078 1.081326 1.167769 1.191737 1.242028
P_10 1.158946 1.129232 1.099457 1.145223 1.034016 1.162942
P_10 0.995194 0.974874 1.105688 1.012677 1.106641 1.072043
P_10 1.069139 1.092641 1.121730 1.167479 1.114877 1.131452
P_10 1.118878 1.080947 0.957932 0.929717 0.868579 0.736970
P_10 0.708313 0.605702 0.517356 0.514828 0.432610 0.424397
P_10 0.466737 0.447211 0.481882 0.560905 0.627049 0.764627
P_10 0.846488 0.847798 1.072760 1.083178 1.352719 1.424351
P_10 1.397603 1.396175 1.470693 1.431194 1.444968 1.309820
P_10 1.264948 1.197525 1.268015 1.099108 0.988401 1.063490
P_10 1.009264 0.913101 0.966476 0.955442 1.056332 1.090188
P_10 1.114379 1.144538 1.264464 1.273792 1.298611 1.149621
P_10 1.236380 1.122460 1.025793 1.070891 0.949522 0.883943
P_10 0.733877 0.734576 0.565992 0.521083 0.484720 0.492156
P_10 0.452691 0.478445 0.534023 0.600176 0.743466 0.752622
P_10 0.856019 0.925736 1.060898 1.140212 1.179789 1.328109
P_10 1.264826 1.396359 1.295981 1.340554 1.394620 1.388661
P_10 1.244414 1.155589 1.161165 1.175984 1.070716 1.043217
P_10 1.012519 0.977460 1.045118 1.030348 1.064003 1.181150
P_10 1.196018 1.183757 1.222692 1.178352 1.196322 1.404333
P_10 1.238611 1.203695 1.184818 1.077822 0.813959 0.943287
P_10 0.650697 0.638158 0.558862 0.551611 0.494754 0.482090
P_10 0.453762 0.498449 0.526103 0.629071 0.675673 0.707177
P_10 0.812507 1.000606 1.077158 1.150318 1.277780 1.308140
P_10 1.351181 1.237929 1.406387 1.364801 1.291897 1.320707
P_10 1.321851 1.294600 1.129827 1.247317 1.082092 1.074613
P_10 0.991786 1.117256 1.087471 1.102913 1.095126 1.122397
P_10 1.092714 1.209787 1.235774 1.228639 1.207772 1.278347
P_10 1.280243 1.182539 1.143306 0.980190 0.953514 0.839540
P_10 0.771466 0.619431 0.569603 0.505644 0.482041 0.415931
P_10 0.430946 0.465330 0.532558 0.605223 0.757548 0.767706
P_10 0.923680 1.028465 1.051847 1.218209 1.262372 1.414150
P_10 1.305748 1.351661 1.413906 1.368407 1.219159 1.197138
P_10 1.343279 1.253276 1.106113 1.122662 1.096941 0.986002
P_10 1.066924 0.943260 1.066808 1.051246 1.119195 1.071638
P_10 1.154307 1.250895 1.238836 1.214134 1.190915 1.129295
P_10 1.121040 1.135777 1.119885 1.063044 0.958589 0.780831
P_10 0.725855 0.718340 0.637607 0.575918 0.438822 0.506970
P_10 0.507448 0.535997 0.527581 0.640695 0.719151 0.889974
P_10 0.921262 1.051074 1.191795 1.420304 1.422207 1.397135
P_10 1.452853 1.577344 1.634641 1.497582 1.559249 1.414538
P_10 1.400824 1.247880 1.235218 1.199402 1.169452 1.162724
P_10 1.132867 1.222820 1.126980 1.098632 1.276592 1.177906
P_10 1.238740 1.280250 1.170408 1.139249 1.223080 1.245578
P_10 1.186594 1.032462 1.018899 0.970312 0.913133 0.901016
P_10 0.745041 0.774365 0.687855 0.621100 0.596066 0.522783
P_10 0.531097 0.488843 0.487767 0.510857 0.574398 0.689931
P_10 0.679820 0.839522 0.879320 0.997483 1.115013 1.200502
P_10 1.228814 1.321529 1.248178 1.181160 1.241895 1.347531
P_10 1.216783 1.295919 1.139101 1.105998 1.066943 1.115271
P_10 1.146666 1.125446 1.027762 1.230269 1.142670 1.118777
P_10 1.267308 1.238770 1.190758 1.295784 1.170365 1.114259
P_10 1.058761 1.005752 0.956951 0.901164 0.810184 0.783043
P_10 0.635679 0.668111 0.596534 0.621422 0.538123 0.578898
P_10 0.507972 0.489408 0.512304 0.481951 0.524631 0.550885
P_10 0.632245 0.700477 0.789005 0.847144 0.853797 1.007758
P_10 1.045947 1.030020 1.141076 1.133630 1.130781 1.184647
P_10 1.220587 1.182414 1.093782 1.198036 1.045112 0.980849
P_10 0.950280 1.123610 1.098497 1.017516 1.087929 1.074830
P_10 1.159951 1.031709 1.168822 1.250385 1.141428 1.165575
P_10 1.061072 1.083071 0.980936 1.055256 0.898298 0.824970
P_10 0.679156 0.689817 0.539395 0.482569 0.434249 0.500872
P_10 0.448548 0.482703 0.533889 0.555383 0.643593 0.702310
P_10 0.899097 0.940502 1.054048 1.187598 1.143837 1.340029
P_10 1.434582 1.447014 1.435213 1.454805 1.449336 1.285238
P_10 1.317457 1.341214 1.196505 1.101484 1.125837 1.057912
P_10 1.003303 1.005641 0.944307 0.956301 1.091172 1.123129
P_10 1.086416 1.276335 1.153622 1.174165 1.252090 1.075285
P_10 1.171760 1.171247 1.066317 1.077181 0.987678 0.869808
P_10 0.730127 0.652816 0.600365 0.517523 0.501975 0.477945
P_10 0.462969 0.440815 0.592882 0.611309 0.719386 0.853472
P_10 0.847820 0.999346 1.048877 1.081876 1.256835 1.144515
P_10 1.389132 1.315347 1.375953 1.360153 1.352905 1.280084
P_10 1.241564 1.193796 1.194395 1.108803 1.129649 1.112206
P_10 1.100325 0.990262 1.017619 1.075500 1.105296 1.087210
P_10 1.268275 1.187356 1.165620 1.251980 1.203167 1.336438
P_10 1.233386 1.237057 1.079726 1.038262 0.857844 0.916689
P_10 0.712468 0.669245 0.555486 0.447538 0.445046 0.470032
P_10 0.426295 0.498565 0.540776 0.625830 0.661574 0.796947
P_10 0.946007 1.031031 1.065944 1.137534 1.177858 1.354628
P_10 1.328239 1.429833 1.400087 1.320842 1.381655 1.364049
P_10 1.363388 1.158892 1.245451 1.103487 1.096211 1.197758
P_10 1.063643 1.190114 1.232371 1.212360 1.146066 1.204840
P_10 1.168505 1.262135 1.281802 1.263154 1.197427 1.281295
P_10 1.166469 1.175846 1.056857 1.103169 0.975069 0.834630
P_10 0.780967 0.671954 0.624469 0.525428 0.507041 0.436315
P_10 0.485103 0.498301 0.543429 0.638903 0.682137 0.758073
P_10 0.783952 0.958667 1.013138 1.196489 1.193605 1.319596
P_10 1.311784 1.460240 1.302990 1.391214 1.402516 1.197436
P_10 1.244154 1.140817 1.172673 1.132849 1.047200 1.063002
P_10 1.106648 1.215663 1.106270 1.141042 1.093298 1.218209
P_10 1.228249 1.194932 1.382705 1.178345 1.216792 1.225352
P_10 1.250078 1.224600 1.105986 1.027375 0.995495 0.787400
P_10 0.780408 0.660905 0.653982 0.555207 0.497174 0.514274
P_10 0.492679 0.491315 0.619397 0.666787 0.814795 0.879665
P_10 0.985997 1.111161 1.314737 1.405838 1.442551 1.626584
P_10 1.635199 1.620187 1.590104 1.464221 1.681108 1.521163
P_10 1.462132 1.228106 1.312535 1.209970 1.236633 1.247749
P_10 1.103297 1.190826 1.185788 1.262069 1.106733 1.231274
P_10 1.314123 1.353159 1.257460 1.291430 1.203526 1.266404
P_10 1.150456 1.051683 1.045730 1.061506 0.958583 0.873292
P_10 0.828461 0.675068 0.723157 0.620506 0.543889 0.505137