; Filename: networks/Net1.inp
; WNTR: 0.1.6
; Created: 2019-04-09 13:24:16
[TITLE]
EPANET Example Network 1
A simple example of modeling chlorine decay. Both bulk and
wall reactions are included.

[JUNCTIONS]
;ID                      Elevation       Demand Pattern                 
 10                               710               0                            ;
 11                               710               0                            ;
 12                               700               0                            ;
 13                               695               0                            ;
 21                               700               0                            ;
 22                               695               0                            ;
 23                               690               0                            ;
 31                               700               0                            ;
 32                               710               0                            ;

[RESERVOIRS]
;ID                                   Head                  Pattern
 9                                800                            ;

[TANKS]
;ID                              Elevation           Init Level            Min Level            Max Level             Diameter           Min Volume Volume Curve        
 2                                850             120             100             150            50.5               0                        ;

[PIPES]
;ID                   Node1                Node2                              Length             Diameter            Roughness           Minor Loss               Status
 10                   10                   11                             10530              18             100               0                 Open   ;
 11                   11                   12                              5280              14             100               0                 Open   ;
 12                   12                   13                              5280              10             100               0                 Open   ;
 21                   21                   22                              5280              10             100               0                 Open   ;
 22                   22                   23                              5280              12             100               0                 Open   ;
 31                   31                   32                              5280               6             100               0                 Open   ;
 110                  2                    12                               200              18             100               0                 Open   ;
 111                  11                   21                              5280              10             100               0                 Open   ;
 112                  12                   22                              5280              12             100               0                 Open   ;
 113                  13                   23                              5280               8             100               0                 Open   ;
 121                  21                   31                              5280               8             100               0                 Open   ;
 122                  22                   32                              5280               6             100               0                 Open   ;

[PUMPS]
;ID                   Node1                Node2                Properties          
 9                    9                    10                   HEAD     1                      ;

[VALVES]
;ID                   Node1                Node2                            Diameter Type              Setting           Minor Loss

[TAGS]
;type      name       tag       

[DEMANDS]
;ID        Demand     Pattern   
10         0.0        P_10      
11         150.0      P_11      
12         150.0      P_12      
13         100.0      P_13      
21         150.0      P_21      
22         200.0      P_22      
23         150.0      P_23      
31         100.0      P_31      
32         100.0      P_32      

[STATUS]
;ID        Setting   
[PATTERNS]
;ID        Multipliers

1 1.000000 1.200000 1.400000 1.600000 1.400000 1.200000
1 1.000000 0.800000 0.600000 0.400000 0.600000 0.800000

P_10 0.608764 0.581833 0.485546 0.449756 0.406972 0.400784
P_10 0.378186 0.384667 0.424523 0.515787 0.597088 0.604311
P_10 0.778418 0.834311 0.943857 0.934810 1.128495 1.108897
P_10 1.300674 1.310320 1.291362 1.396181 1.276615 1.208539
P_10 1.182741 1.177357 1.041372 0.982229 1.019974 0.971965
P_10 0.953872 0.865922 0.896593 0.967730 0.900360 0.962820
P_10 0.948366 0.989000 1.019460 1.049875 0.964827 1.051484
P_10 1.089728 0.946601 0.937521 0.825625 0.777899 0.724845
P_10 0.635025 0.589113 0.491293 0.452512 0.435205 0.397059
P_10 0.408376 0.404471 0.403361 0.540636 0.576007 0.620220
P_10 0.775656 0.863600 0.892806 1.002561 1.102317 1.098545
P_10 1.189972 1.205057 1.156608 1.278616 1.189013 1.121125
P_10 1.213175 1.188473 1.026067 1.010996 0.906339 0.932651
P_10 0.943778 0.902363 0.816860 0.950263 0.937527 0.998905
P_10 1.039497 1.007823 1.014652 1.031312 1.100626 1.057806
P_10 1.052178 1.094091 0.922513 0.792155 0.818034 0.746272
P_10 0.655731 0.507136 0.521354 0.442636 0.410665 0.415429
P_10 0.359923 0.449472 0.482047 0.539005 0.644509 0.674295
P_10 0.764041 0.894313 0.890112 1.034335 1.143179 1.175354
P_10 1.186225 1.151697 1.313690 1.241523 1.095642 1.203440
P_10 1.134277 1.206104 1.082622 1.018570 1.022854 0.935666
P_10 0.988044 0.891353 1.033131 1.077905 0.894553 0.942015
P_10 1.039985 0.957175 1.135877 1.010060 1.071847 1.052267
P_10 1.001564 0.902933 0.927468 0.849955 0.813321 0.770748
P_10 0.631509 0.563416 0.522999 0.441380 0.434040 0.416893
P_10 0.427296 0.410016 0.476992 0.506664 0.599958 0.710883
P_10 0.770989 0.866442 0.992174 1.031160 1.134927 1.115780
P_10 1.204987 1.197798 1.246587 1.143388 1.226732 1.139319
P_10 1.144602 1.043159 1.011650 1.030868 1.022693 1.046961
P_10 1.055733 1.011432 0.999896 0.928099 0.882192 1.054398
P_10 0.927581 0.961171 1.114853 1.110783 1.098215 1.051114
P_10 1.031371 0.969898 0.945801 0.907384 0.844885 0.784322
P_10 0.709490 0.585465 0.522520 0.514557 0.441747 0.430557
P_10 0.385766 0.447517 0.494726 0.577605 0.647371 0.785707
P_10 0.915555 0.959536 1.017549 1.136182 1.399817 1.416509
P_10 1.358285 1.437500 1.382851 1.400006 1.354401 1.279680
P_10 1.251355 1.095927 1.076017 1.023686 1.128917 1.017852
P_10 1.009319 1.007358 1.013747 1.116008 1.083843 1.087541
P_10 1.017200 1.063896 1.089018 1.093214 0.993843 1.041503
P_10 0.995066 0.910101 0.910229 0.966817 0.766428 0.791395
P_10 0.693049 0.668263 0.642994 0.571083 0.434340 0.468559
P_10 0.455555 0.418964 0.457480 0.491921 0.528227 0.540060
P_10 0.617828 0.673326 0.828703 0.866028 0.968955 1.008858
P_10 1.082339 1.028442 1.073918 1.240851 1.141398 1.126320
P_10 1.125603 1.083615 1.096369 1.130649 1.034830 1.017801
P_10 1.043519 1.045483 1.094192 1.045203 1.117157 0.964568
P_10 1.074826 1.067338 1.024583 0.960031 0.974891 0.854083
P_10 0.982768 0.908063 0.861692 0.812039 0.736815 0.665121
P_10 0.623067 0.537513 0.539909 0.549942 0.443357 0.437355
P_10 0.446151 0.402896 0.424557 0.423486 0.435485 0.454704
P_10 0.555652 0.606098 0.648841 0.765798 0.770310 0.845087
P_10 0.888249 1.060629 0.964210 1.049084 1.060559 0.971426
P_10 1.112326 1.055998 1.047559 1.050594 1.117805 0.962873
P_10 0.970150 0.845256 0.945908 0.922829 0.992707 0.918919
P_10 0.949420 0.951706 1.032742 0.911330 1.052643 0.988620
P_10 0.950339 0.944479 0.916310 0.764510 0.807799 0.739201
P_10 0.595838 0.528606 0.476469 0.504840 0.368111 0.366870
P_10 0.385667 0.408541 0.460454 0.477032 0.548404 0.640659
P_10 0.775461 0.774911 0.990638 1.076327 1.167271 1.144995
P_10 1.347977 1.253463 1.221044 1.411364 1.233383 1.378076
P_10 1.035691 1.214792 1.070782 1.078008 0.925504 0.967005
P_10 0.923705 0.877651 0.857364 0.910077 0.939643 0.906784
P_10 1.009659 0.904527 1.107811 1.047900 1.036997 0.950954
P_10 1.073072 0.927015 1.002204 0.931144 0.863678 0.750437
P_10 0.676640 0.581126 0.501404 0.448561 0.434861 0.429588
P_10 0.426119 0.395406 0.466722 0.527693 0.615441 0.651727
P_10 0.757111 0.881562 0.925342 1.072790 0.983520 1.222104
P_10 1.157249 1.176062 1.233607 1.237783 1.359579 1.156084
P_10 1.127880 1.086508 1.140576 0.974596 0.875685 0.987278
P_10 0.980755 0.880257 0.992553 1.019466 0.969633 0.996848
P_10 1.061036 1.085153 1.105465 1.090701 1.157533 1.121863
P_10 1.067383 0.940255 0.960457 0.895923 0.762669 0.794965
P_10 0.664089 0.584061 0.455424 0.473465 0.401074 0.404068
P_10 0.407699 0.421989 0.473107 0.584686 0.583829 0.758822
P_10 0.856521 0.811943 1.006899 0.995963 1.157609 1.235677
P_10 1.189081 1.232704 1.216210 1.298567 1.107034 1.252962
P_10 1.150645 1.130305 1.105738 1.079578 1.018234 1.019707
P_10 0.980799 0.890833 0.964960 0.949899 1.006390 1.023129
P_10 0.987328 1.149186 1.103731 1.150185 1.114926 1.100987
P_10 1.079503 1.020624 1.001923 0.958017 0.858374 0.780660
P_10 0.689849 0.638063 0.468460 0.439239 0.425608 0.373089
P_10 0.408329 0.400621 0.531286 0.545935 0.639379 0.731743
P_10 0.816396 0.879512 1.012008 0.938026 1.069444 1.174936
P_10 1.200674 1.242172 1.236382 1.251196 1.250992 1.227479
P_10 1.117446 1.077224 1.063791 1.091490 0.991346 0.921704
P_10 0.961303 0.954984 0.972636 0.990289 0.957187 1.046846
P_10 0.983791 1.072232 1.114587 1.090286 1.129352 1.097712
P_10 1.128265 1.005667 1.029142 0.933578 0.793462 0.821171
P_10 0.668987 0.629679 0.506703 0.494190 0.423088 0.436440
P_10 0.462643 0.446340 0.509789 0.541801 0.638811 0.743808
P_10 0.925428 1.067300 1.036581 1.174700 1.252708 1.426666
P_10 1.352445 1.326656 1.383701 1.491779 1.355891 1.252545
P_10 1.226619 1.288065 1.206032 1.173486 1.051231 0.950737
P_10 1.087839 1.070241 0.976980 0.997756 1.095773 1.045900
P_10 1.017078 1.031620 1.136398 1.010640 1.068795 1.025286
P_10 0.974025 0.987642 0.909088 0.922077 0.841242 0.813031
P_10 0.722436 0.638464 0.590019 0.577133 0.496612 0.441295
P_10 0.410310 0.450421 0.481412 0.528024 0.531240 0.576443
P_10 0.691882 0.746236 0.832606 0.957723 0.956577 1.067981
P_10 0.974153 1.152322 1.055254 1.181640 1.151344 1.183186
P_10 1.149485 1.146644 1.201030 1.118770 1.093954 0.945222
P_10 1.052265 1.032883 0.948821 1.203806 1.095150 1.066172
P_10 1.093220 0.943197 1.007167 0.983556 0.928908 0.948513
P_10 0.934018 0.802412 0.815821 0.810710 0.775680 0.699397
P_10 0.633146 0.617016 0.611705 0.543847 0.463945 0.446725
P_10 0.458730 0.473214 0.423806 0.440571 0.453804 0.493096
P_10 0.562163 0.505795 0.639623 0.697773 0.772380 0.811856
P_10 0.914905 1.005358 1.017493 0.934219 1.006139 1.145849
P_10 1.112316 1.064190 1.009505 1.084338 0.995009 0.897226
P_10 0.886484 0.889966 0.954799 1.020383 0.929681 0.945455
P_10 0.927544 1.025320 1.098458 0.949619 0.969084 1.078914
P_10 0.982677 0.872208 0.894230 0.781202 0.789814 0.640380
P_10 0.630021 0.581608 0.510751 0.510871 0.431181 0.400097
P_10 0.404300 0.434954 0.462504 0.589298 0.564804 0.677765
P_10 0.654933 0.827629 1.000299 0.979948 1.145839 1.094986
P_10 1.305584 1.253300 1.461592 1.199338 1.303598 1.221745
P_10 1.273196 1.328107 1.147250 1.143975 1.034860 0.896702
P_10 0.954040 0.980461 0.828494 0.940868 0.883569 0.937211
P_10 0.989182 1.020343 1.144496 1.056950 1.199537 1.149025
P_10 1.051634 1.080935 1.015545 0.918976 0.899509 0.822667
P_10 0.713109 0.544695 0.505379 0.471571 0.419807 0.411449
P_10 0.362163 0.423174 0.446573 0.566822 0.616970 0.698968
P_10 0.725254 0.831272 0.961169 1.006817 1.150996 1.151560
P_10 1.274708 1.234349 1.288707 1.244782 1.225523 1.282694
P_10 1.124026 1.068172 1.153019 1.095403 0.926450 1.039750
P_10 0.855852 0.851060 0.985539 0.941041 1.047919 1.047711
P_10 1.019566 1.047778 1.122772 1.177892 1.093075 1.149051
P_10 1.177113 1.091279 1.001398 0.845675 0.777061 0.680064
P_10 0.639786 0.542499 0.527993 0.448564 0.387366 0.367060
P_10 0.377241 0.430840 0.560662 0.519188 0.618220 0.673645
P_10 0.722611 0.927613 0.970463 1.064284 1.150266 1.249064
P_10 1.205329 1.165283 1.255347 1.283728 1.211116 1.260740
P_10 1.207024 1.054269 1.142319 0.988569 1.072018 1.017238
P_10 0.960845 1.044919 1.119039 1.011565 1.003959 0.964761
P_10 1.091093 1.024466 1.010349 1.018216 1.015824 1.071520
P_10 1.019014 1.081177 1.089109 0.864509 0.779997 0.722543
P_10 0.688064 0.598842 0.505343 0.478064 0.418061 0.411966
P_10 0.423876 0.415795 0.505618 0.500371 0.657268 0.713765
P_10 0.902437 0.955487 1.019948 1.117618 1.105750 1.217984
P_10 1.202990 1.186994 1.159510 1.246027 1.149474 1.204785
P_10 1.088980 1.049747 1.034650 1.070432 0.969411 1.010972
P_10 0.939750 1.001699 0.866828 0.985687 1.050728 1.104941
P_10 1.021614 1.179829 1.081974 1.207164 1.032083 1.032197
P_10 1.126968 0.976907 1.092284 0.920905 0.843667 0.746941
P_10 0.672037 0.631846 0.581865 0.506468 0.466318 0.398398
P_10 0.461850 0.459673 0.520404 0.624974 0.693882 0.730807
P_10 0.866265 1.005346 1.245562 1.296217 1.302526 1.294718
P_10 1.358300 1.519424 1.539117 1.313533 1.337358 1.159914
P_10 1.270186 1.273919 1.132064 1.204018 1.045479 1.091835
P_10 1.108320 1.080537 1.051357 1.044722 1.022180 1.175947
P_10 1.146717 1.082987 1.110629 1.081944 1.000316 1.039646
P_10 1.075944 0.938815 0.878774 0.860038 0.805386 0.702570
P_10 0.737651 0.715453 0.646813 0.565588 0.514154 0.509875
P_10 0.503001 0.473546 0.482753 0.486060 0.538318 0.590525
P_10 0.605371 0.779159 0.830025 0.889010 1.013260 0.996951
P_10 1.076170 1.131576 1.175622 1.316412 1.064356 1.218814
P_10 1.232086 1.093690 1.075893 1.112469 1.083536 1.116013
P_10 1.147981 1.126858 1.201307 1.104247 1.034528 1.096460
P_10 1.092320 1.152619 1.084594 1.047828 1.031189 0.965374
P_10 0.868110 0.839408 0.794508 0.788487 0.754488 0.645936
P_10 0.624958 0.633194 0.597503 0.553116 0.496194 0.524100
P_10 0.418595 0.432124 0.461312 0.452543 0.506242 0.482199
P_10 0.482016 0.586054 0.639794 0.728039 0.834612 0.900854
P_10 0.879414 1.045823 1.153492 1.068495 1.087063 1.108478
P_10 1.151614 1.182263 0.982794 1.080076 1.095316 0.978615
P_10 0.985770 0.941907 1.006086 0.916440 0.958409 0.891351
P_10 1.108425 1.046452 1.065852 1.135379 0.961440 1.000886
P_10 1.015008 0.971948 0.942765 0.838842 0.781448 0.686409
P_10 0.659725 0.574129 0.436159 0.488699 0.396737 0.435023
P_10 0.417375 0.417848 0.459532 0.539696 0.658954 0.637793
P_10 0.791237 0.833230 1.101592 0.999056 1.129844 1.228324
P_10 1.288750 1.306696 1.395872 1.377529 1.401546 1.307305
P_10 1.250145 1.107082 1.128428 1.193896 1.105268 0.993166
P_10 0.938269 0.991818 0.842994 0.855921 0.882423 0.979250
P_10 0.909075 0.998616 1.120639 1.148185 1.130983 1.214237
P_10 1.113435 1.131797 0.995520 0.927056 0.928363 0.723136
P_10 0.696090 0.588603 0.553023 0.489648 0.386126 0.446707
P_10 0.420745 0.482304 0.501643 0.542222 0.661601 0.681842
P_10 0.758760 0.915969 0.913899 1.079099 1.156803 1.155235
P_10 1.234419 1.172944 1.294390 1.248100 1.301145 1.245202
P_10 1.218529 1.172564 1.192389 1.004017 1.117268 0.943644
P_10 1.016327 0.896084 0.970294 0.961840 1.060671 1.057533
P_10 0.982062 1.067351 1.141838 1.161975 1.110284 1.099929
P_10 1.140563 1.050374 1.032245 0.925642 0.800045 0.845983
P_10 0.631954 0.577758 0.519997 0.504566 0.417128 0.422796
P_10 0.450233 0.485517 0.503950 0.541376 0.636437 0.690312
P_10 0.790394 0.876696 0.959823 1.136514 1.147037 1.200731
P_10 1.214886 1.168696 1.183587 1.268087 1.299935 1.228503
P_10 1.246173 1.286627 1.155684 1.170407 1.112564 1.058599
P_10 1.060652 0.892199 0.939267 1.184488 1.072007 1.056214
P_10 1.194999 1.159722 1.072448 1.170677 1.195756 1.026808
P_10 1.035284 1.053157 1.000388 0.969199 0.903210 0.758770
P_10 0.635465 0.589935 0.543340 0.441079 0.443013 0.417486
P_10 0.429243 0.418550 0.480066 0.550876 0.629248 0.733202
P_10 0.807896 0.900133 1.014122 1.166317 1.165074 1.208850
P_10 1.185719 1.245049 1.214599 1.315127 1.149507 1.246889
P_10 1.215478 1.006979 1.177893 1.109346 1.077905 0.979277
P_10 1.009201 1.021650 0.912014 0.980946 1.016977 1.058068
P_10 1.113548 1.124169 1.134965 1.203030 1.047810 1.079450
P_10 1.078214 1.100933 1.036988 0.923652 0.918325 0.764298
P_10 0.708029 0.654554 0.536641 0.499544 0.460083 0.453174
P_10 0.434291 0.498664 0.562263 0.584062 0.683803 0.789802
P_10 0.939895 1.049785 1.101919 1.201231 1.368220 1.411733
P_10 1.359752 1.519038 1.417464 1.363805 1.316297 1.242475
P_10 1.445576 1.357655 1.205083 1.192509 1.067814 1.141968
P_10 1.105859 1.121574 1.004106 1.089876 1.131024 1.158022
P_10 1.144923 1.096215 1.132489 1.135740 1.151816 1.067976
P_10 1.046270 1.061731 0.928580 0.819132 0.836142 0.724851
P_10 0.771817 0.755114 0.557560 0.582280 0.487983 0.500045
P_10 0.525081 0.448891 0.492510 0.566241 0.568396 0.623385
P_10 0.685698 0.746556 0.966427 0.859320 0.868571 1.076706
P_10 1.167816 1.044660 1.297821 1.108133 1.116059 1.324416
P_10 1.245288 1.084082 1.211420 1.016663 1.138103 1.196862
P_10 1.131562 1.114220 1.052656 1.074148 1.074870 1.043169
P_10 0.994588 0.991323 1.058166 1.100965 1.034928 1.079908
P_10 0.984391 0.891864 0.807796 0.806608 0.718129 0.659560
P_10 0.736028 0.610645 0.634261 0.593663 0.531290 0.496726
P_10 0.478344 0.453792 0.454028 0.450972 0.466625 0.493993
P_10 0.546333 0.559157 0.698933 0.792269 0.814324 0.869900
P_10 0.894931 1.010770 1.149308 1.103351 1.129543 1.143511
P_10 1.209256 1.183511 1.196045 1.066492 1.002736 0.988990
P_10 0.962828 1.018397 1.046578 1.043368 1.012092 1.023758
P_10 0.948860 0.946020 1.064618 1.070001 1.112627 1.031528
P_10 0.938949 1.014166 0.992454 0.891200 0.804346 0.722600
P_10 0.652655 0.562623 0.545677 0.508513 0.446433 0.415589
P_10 0.432828 0.405931 0.460858 0.529063 0.630613 0.656825
P_10 0.820495 0.858531 0.992111 1.127727 1.125455 1.333636
P_10 1.311065 1.356835 1.397054 1.448416 1.416856 1.338509
P_10 1.231810 1.260105 1.098529 1.141425 1.044109 1.027567
P_10 0.970567 1.024381 0.895077 0.842611 0.952752 1.043898
P_10 0.958198 1.172471 1.119790 1.167643 1.150716 1.111802
P_10 1.174045 1.114076 1.040096 0.881174 0.914792 0.821644
P_10 0.735931 0.589684 0.499105 0.525183 0.426006 0.426432
P_10 0.458304 0.424954 0.534425 0.563948 0.648806 0.730624
P_10 0.750176 0.849327 1.144117 1.065166 1.218990 1.150299
P_10 1.254415 1.305084 1.395891 1.290506 1.369784 1.301753
P_10 1.242857 1.073493 0.915935 0.989971 1.028708 1.058064
P_10 0.921320 0.977298 0.961362 1.048286 1.051065 1.080423
P_10 1.165732 1.230993 1.205884 1.166771 1.211232 1.221455
P_10 1.162736 1.067629 1.042626 0.977672 0.870189 0.794992
P_10 0.715817 0.608500 0.509391 0.504867 0.449705 0.420309
P_10 0.458179 0.457190 0.484490 0.576079 0.657165 0.774377
P_10 0.856586 0.903232 1.080752 1.101506 1.159049 1.200134
P_10 1.449397 1.294328 1.230260 1.319351 1.301998 1.274830
P_10 1.403443 1.152337 1.232721 1.137357 1.127557 1.077670
P_10 1.055329 1.138654 1.094438 1.028029 1.110499 1.118935
P_10 1.071658 1.172991 1.024743 1.204305 1.082024 1.172462
P_10 1.168091 1.188880 1.088299 1.002820 0.995455 0.769120
P_10 0.727895 0.554421 0.564154 0.507402 0.439497 0.410077
P_10 0.452058 0.454592 0.508636 0.535006 0.683417 0.837300
P_10 0.870419 0.978792 1.127054 1.079395 1.098082 1.234418
P_10 1.360507 1.247185 1.385856 1.317500 1.310591 1.258935
P_10 1.193082 1.126558 1.074315 1.067806 1.058258 1.033179
P_10 0.984847 1.064810 1.008750 1.067402 1.105375 1.143355
P_10 1.072070 1.150302 1.128826 1.184208 1.181139 1.118873
P_10 1.114735 1.110181 1.037856 0.968501 0.922653 0.781555
P_10 0.744867 0.658706 0.568912 0.516048 0.480813 0.495216
P_10 0.468969 0.515970 0.552057 0.589053 0.739683 0.817070
P_10 1.016517 1.073127 1.020870 1.296625 1.399930 1.376446
P_10 1.545175 1.434841 1.434342 1.514865 1.349928 1.387214
P_10 1.372117 1.232224 1.184899 1.190096 1.085579 1.067978
P_10 1.128355 1.092209 1.024824 1.016908 0.985061 1.111701
P_10 1.076198 1.059666 1.086597 1.060898 1.065245 1.118753
P_10 1.063666 1.038263 0.945029 0.951330 0.839555 0.803931
P_10 0.759757 0.702368 0.634746 0.557474 0.541422 0.479779
P_10 0.523183 0.506177 0.448375 0.503885 0.529346 0.625125
P_10 0.745127 0.766289 0.889639 0.969713 0.941407 1.166628
P_10 1.124463 1.125691 1.102339 1.196363 1.254360 1.253034
P_10 1.193745 1.191548 1.171337 1.153886 1.234359 1.100002
P_10 1.135122 1.125205 1.148589 1.176168 1.229673 1.088761
P_10 1.137738 1.066993 1.064047 0.972193 1.003887 1.034714
P_10 1.049665 0.898019 0.838909 0.910184 0.771878 0.741898
P_10 0.670126 0.620607 0.605063 0.596930 0.556066 0.438831
P_10 0.446343 0.479315 0.503046 0.521322 0.504509 0.492355
P_10 0.571258 0.645950 0.740005 0.780334 0.849685 0.882240
P_10 1.069192 1.020433 0.954816 1.291380 1.180868 1.080621
P_10 1.180961 1.176080 1.111617 1.170535 1.078399 1.038721
P_10 0.979766 1.046005 1.018245 0.970196 0.975818 1.031401
P_10 1.154074 1.113075 1.122446 1.187979 1.011458 1.152808
P_10 1.211191 1.017026 1.106969 0.915391 0.848561 0.707081
P_10 0.698207 0.581182 0.570399 0.467246 0.431855 0.406666
P_10 0.422188 0.465324 0.489771 0.542222 0.599543 0.726829
P_10 0.829705 0.960551 1.070714 1.037894 1.249432 1.193657
P_10 1.294777 1.437119 1.347088 1.408193 1.451792 1.483854
P_10 1.303876 1.234894 1.116028 1.086836 1.180455 1.012221
P_10 1.000479 0.984711 0.912593 0.919225 0.949888 1.039767
P_10 1.060565 1.143073 1.194159 1.231607 1.306031 1.131126
P_10 1.257598 1.144630 1.005410 0.969254 0.883514 0.745097
P_10 0.760968 0.612548 0.599130 0.494366 0.454037 0.424090
P_10 0.428473 0.473262 0.470036 0.566938 0.622606 0.749915
P_10 0.771409 0.934298 0.967953 1.078491 1.245512 1.189624
P_10 1.320440 1.334434 1.479520 1.253394 1.265832 1.355844
P_10 1.205013 1.194303 1.222374 1.243518 1.066159 1.057297
P_10 0.988535 0.947942 1.092487 1.114663 1.079991 1.062051
P_10 1.128747 1.168126 1.180082 1.114739 1.195294 1.265708
P_10 1.225202 1.030875 1.085991 1.095179 0.884046 0.773176
P_10 0.673285 0.623225 0.538381 0.470234 0.455309 0.394581
P_10 0.461314 0.490942 0.536088 0.690973 0.713934 0.809565
P_10 0.819120 0.868563 1.012207 1.132127 1.166389 1.228239
P_10 1.268732 1.322310 1.298169 1.287239 1.374391 1.419951
P_10 1.424063 1.231016 1.179873 1.189672 1.033858 1.078211
P_10 1.154154 1.084680 1.043459 1.154646 1.155898 0.987559
P_10 1.103343 1.154358 1.153770 1.186868 1.228877 1.166205
P_10 1.172591 1.124264 1.030018 0.925675 0.937376 0.843836
P_10 0.770365 0.596290 0.585329 0.472060 0.483367 0.432462
P_10 0.420633 0.474622 0.457834 0.575085 0.691207 0.762943
P_10 0.875202 0.962317 1.008044 1.173764 1.211538 1.367554
P_10 1.280166 1.222051 1.355044 1.271361 1.290324 1.105773
P_10 1.232037 1.177310 1.173844 1.172499 1.094918 1.069312
P_10 1.030518 1.111068 1.078204 1.065429 1.059325 1.055673
P_10 1.128491 1.133239 1.163818 1.130674 1.138679 1.178139
P_10 1.184392 1.091370 1.011224 1.050114 0.862944 0.854003
P_10 0.756137 0.583739 0.525428 0.496613 0.487005 0.461054
P_10 0.462930 0.495717 0.548509 0.641826 0.771398 0.870263
P_10 1.043261 0.999499 1.207311 1.389200 1.415323 1.331063
P_10 1.509117 1.443435 1.625832 1.473331 1.549032 1.450382
P_10 1.368335 1.269070 1.258953 1.158256 1.184732 1.061407
P_10 1.167912 1.131789 1.139242 1.129798 1.218986 1.188514
P_10 1.241558 1.208868 1.188012 1.108598 1.108362 1.136338
P_10 1.103910 1.019555 0.954850 0.970479 0.939571 0.829933
P_10 0.710686 0.733563 0.655945 0.666036 0.555543 0.496294
P_10 0.504861 0.543824 0.491010 0.530131 0.560829 0.621416
P_10 0.741560 0.832729 0.831504 0.966289 1.100721 1.117697
P_10 1.157412 1.245064 1.240293 1.226982 1.272563 1.198690
P_10 1.309875 1.147845 1.178243 1.207875 1.162086 1.198978
P_10 1.099055 1.093056 1.152441 1.168608 1.125930 1.166678
P_10 1.186963 1.149945 1.255515 1.004404 1.148690 0.995721
P_10 0.977534 0.983309 0.914779 0.794199 0.765715 0.745877
P_10 0.742584 0.618017 0.591440 0.607436 0.525056 0.503504
P_10 0.503800 0.479687 0.465885 0.490170 0.494696 0.541522
P_10 0.594617 0.578038 0.701539 0.767465 0.816891 0.977740
P_10 0.931228 1.191298 1.041986 1.184076 1.163857 1.203016
P_10 1.123289 1.185112 1.253232 1.132277 1.139139 1.123820
P_10 1.076712 1.001081 1.134560 1.034786 1.110220 1.083235
P_10 1.005057 1.113962 1.091043 1.116455 1.120151 1.065120
P_10 1.047079 1.024978 1.022072 0.986991 0.951774 0.801536
P_10 0.687115 0.587566 0.511875 0.442629 0.482497 0.444130
P_10 0.466640 0.466818 0.504671 0.547269 0.646529 0.798627
P_10 0.851973 0.904635 1.078402 1.125759 1.186360 1.291327
P_10 1.407660 1.417610 1.353221 1.500717 1.391752 1.469735
P_10 1.372065 1.246613 1.251049 1.128958 1.004874 0.977657
P_10 1.119633 1.035231 0.972223 1.007161 1.037785 1.165456
P_10 1.097530 1.059565 1.160013 1.062165 1.238503 1.176712
P_10 1.085874 1.036985 1.039718 0.996565 0.966558 0.822368
P_10 0.785736 0.704828 0.575047 0.519049 0.449531 0.482653
P_10 0.450792 0.475604 0.515673 0.638851 0.643357 0.703445
P_10 0.840220 0.942988 0.979069 1.115969 1.134788 1.254760
P_10 1.338592 1.345566 1.477502 1.422648 1.414322 1.442346
P_10 1.345402 1.188917 1.109548 1.062406 1.103179 1.045124
P_10 1.049467 1.076774 0.987033 1.017458 1.038791 1.039829
P_10 1.176612 1.032982 1.178347 1.193284 1.262161 1.231421
P_10 1.128829 1.099086 1.012892 0.974425 0.870573 0.802500
P_10 0.679199 0.609434 0.514206 0.534025 0.461983 0.490182
P_10 0.443962 0.491826 0.583864 0.607111 0.712929 0.798368
P_10 0.872330 0.880975 1.064208 1.178544 1.194899 1.245021
P_10 1.373171 1.248269 1.321999 1.362698 1.444681 1.311308
P_10 1.417091 1.304987 1.232943 1.246608 1.195894 1.134050
P_10 1.154023 1.060334 1.014361 1.082096 1.213658 1.173234
P_10 1.215828 1.155972 1.105666 1.157689 1.195038 1.207123
P_10 1.174094 1.152072 1.134050 0.977718 0.907021 0.859010
P_10 0.745725 0.641657 0.515838 0.527431 0.454499 0.452426
P_10 0.439136 0.482855 0.522863 0.614410 0.670455 0.778114
P_10 0.881364 0.951649 1.061648 1.145659 1.363482 1.219723
P_10 1.340947 1.294147 1.175334 1.316426 1.349826 1.186956
P_10 1.269119 1.215820 1.072782 1.189704 1.140042 1.040244
P_10 1.047953 1.074379 1.106715 1.172464 1.125767 1.092398
P_10 1.210528 1.234375 1.089139 1.188191 1.194190 1.210391
P_10 1.144601 1.136754 1.010185 1.016251 0.959666 0.943205
P_10 0.732948 0.684392 0.636449 0.542756 0.499134 0.434653
P_10 0.447124 0.535926 0.576711 0.655284 0.706872 0.832368
P_10 1.039174 1.023566 1.306216 1.269986 1.311187 1.536872
P_10 1.422151 1.600641 1.740282 1.481772 1.476536 1.458324
P_10 1.393293 1.442398 1.330912 1.255678 1.151876 1.130363
P_10 1.227038 1.153812 1.247763 1.289897 1.116794 1.158167
P_10 1.161070 1.204389 1.173335 1.207127 1.204110 1.183003
P_10 1.064293 0.981060 1.074070 0.897763 0.993276 0.877825
P_10 0.751274 0.730028 0.686674 0.590119 0.622613 0.550330
P_10 0.509731 0.510634 0.527492 0.539510 0.572064 0.665522
P_10 0.756215 0.729324 0.903559 1.039934 0.958189 1.135864
P_10 1.246123 1.234476 1.285733 1.335446 1.220197 1.229078
P_10 1.221738 1.276475 1.234571 1.203247 1.176788 1.262343
P_10 1.096283 1.282188 1.160058 1.211047 1.210351 1.089027
P_10 1.205935 1.172546 1.199067 1.143129 1.136343 1.057189
P_10 1.018508 0.967267 0.903232 0.917411 0.793543 0.753872
P_10 0.759703 0.672593 0.622900 0.580887 0.555739 0.533429
P_10 0.525117 0.520687 0.487019 0.545066 0.504591 0.530447
P_10 0.580349 0.705773 0.738826 0.809543 0.901434 0.962066
P_10 1.052698 1.058947 1.129640 1.233708 1.311438 1.143115
P_10 1.209335 1.057864 1.137227 1.072423 1.091664 1.156359
P_10 1.055049 1.067696 1.058377 1.125884 0.928174 1.113319
P_10 0.996941 1.150316 1.184560 1.055932 1.104037 1.141816
P_10 1.161669 1.043395 1.019866 0.962499 0.913162 0.770719
P_10 0.722608 0.589122 0.581192 0.472260 0.474598 0.472116
P_10 0.441644 0.497564 0.510911 0.646154 0.652719 0.802155
P_10 0.823977 0.927612 1.095930 1.174015 1.156302 1.335490
P_10 1.374499 1.525893 1.508688 1.544356 1.499203 1.316391
P_10 1.329555 1.287293 1.334478 1.116624 1.239540 1.084539
P_10 1.025593 1.064425 0.960177 1.042768 1.001163 1.102863
P_10 1.034937 1.017396 1.217893 1.107689 1.316987 1.212388
P_10 1.137061 1.140427 1.169365 1.017296 0.981086 0.840431
P_10 0.729347 0.666605 0.565566 0.549631 0.488135 0.457419
P_10 0.489191 0.458508 0.540368 0.653280 0.659051 0.784674
P_10 0.836534 1.003301 1.036018 1.170378 1.298525 1.202949
P_10 1.374924 1.399809 1.420172 1.411542 1.345284 1.242894
P_10 1.242158 1.281854 1.210876 1.167439 1.224324 1.025692
P_10 1.089037 1.029218 1.123764 1.047524 1.225920 1.252182
P_10 1.254197 1.190917 1.165966 1.303483 1.210857 1.208331
P_10 1.172737 1.137335 1.077857 0.979107 0.917635 0.777233
P_10 0.666384 0.663057 0.578585 0.488095 0.452470 0.459946
P_10 0.461482 0.463869 0.531894 0.584080 0.693821 0.789509
P_10 0.862459 1.107462 1.039544 1.222699 1.302164 1.267749
P_10 1.306516 1.310853 1.531778 1.363552 1.252206 1.372189
P_10 1.529366 1.341724 1.368024 1.216866 1.156403 1.125726
P_10 1.144381 1.035574 1.107237 1.069571 1.150388 1.149756
P_10 1.214614 1.224256 1.181904 1.311922 1.193232 1.144218
P_10 1.193796 1.152606 1.038553 0.977173 0.883320 0.932952
P_10 0.724785 0.658543 0.546199 0.533511 0.497974 0.493753
P_10 0.465742 0.526963 0.524946 0.569615 0.752074 0.767800
P_10 0.957033 0.992707 1.017712 1.137677 1.237054 1.341256
P_10 1.475428 1.362822 1.369406 1.386384 1.381269 1.243697
P_10 1.319854 1.280518 1.231395 1.121640 1.024885 1.035399
P_10 1.138324 1.073701 1.087757 1.152538 1.112525 1.113250
P_10 1.311285 1.226544 1.306357 1.255100 1.182035 1.257260
P_10 1.229781 1.167450 1.090227 0.976694 0.903994 0.841004
P_10 0.739519 0.661616 0.628890 0.467478 0.537021 0.493969
P_10 0.485351 0.529542 0.595732 0.648135 0.784332 0.841113
P_10 1.005596 1.045404 1.262847 1.295701 1.517510 1.529891
P_10 1.575251 1.619139 1.596070 1.427125 1.349622 1.401727
P_10 1.409182 1.372525 1.336772 1.229743 1.243866 1.207948
P_10 1.167043 1.126167 1.165826 1.139418 1.271338 1.208551
P_10 1.163472 1.080553 1.218467 1.136325 1.194430 1.162053
P_10 1.137878 1.070786 1.098358 1.084499 0.915584 0.860586
P_10 0.853322 0.651128 0.688556 0.659224 0.528001 0.537525