; Filename: networks/Net1.inp
; WNTR: 0.1.6
; Created: 2019-04-09 13:22:38
[TITLE]
EPANET Example Network 1
A simple example of modeling chlorine decay. Both bulk and
wall reactions are included.

[JUNCTIONS]
;ID                      Elevation       Demand Pattern                 
 10                               710               0                            ;
 11                               710               0                            ;
 12                               700               0                            ;
 13                               695               0                            ;
 21                               700               0                            ;
 22                               695               0                            ;
 23                               690               0                            ;
 31                               700               0                            ;
 32                               710               0                            ;

[RESERVOIRS]
;ID                                   Head                  Pattern
 9                                800                            ;

[TANKS]
;ID                              Elevation           Init Level            Min Level            Max Level             Diameter           Min Volume Volume Curve        
 2                                850             120             100             150            50.5               0                        ;

[PIPES]
;ID                   Node1                Node2                              Length             Diameter            Roughness           Minor Loss               Status
 10                   10                   11                             10530              18             100               0                 Open   ;
 11                   11                   12                              5280              14             100               0                 Open   ;
 12                   12                   13                              5280              10             100               0                 Open   ;
 21                   21                   22                              5280              10             100               0                 Open   ;
 22                   22                   23                              5280              12             100               0                 Open   ;
 31                   31                   32                              5280               6             100               0                 Open   ;
 110                  2                    12                               200              18             100               0                 Open   ;
 111                  11                   21                              5280              10             100               0                 Open   ;
 112                  12                   22                              5280              12             100               0                 Open   ;
 113                  13                   23                              5280               8             100               0                 Open   ;
 121                  21                   31                              5280               8             100               0                 Open   ;
 122                  22                   32                              5280               6             100               0                 Open   ;

[PUMPS]
;ID                   Node1                Node2                Properties          
 9                    9                    10                   HEAD     1                      ;

[VALVES]
;ID                   Node1                Node2                            Diameter Type              Setting           Minor Loss

[TAGS]
;type      name       tag       

[DEMANDS]
;ID        Demand     Pattern   
10         0.0        P_10      
11         150.0      P_11      
12         150.0      P_12      
13         100.0      P_13      
21         150.0      P_21      
22         200.0      P_22      
23         150.0      P_23      
31         100.0      P_31      
32         100.0      P_32      

[STATUS]
;ID        Setting   
[PATTERNS]
;ID        Multipliers

1 1.000000 1.200000 1.400000 1.600000 1.400000 1.200000
1 1.000000 0.800000 0.600000 0.400000 0.600000 0.800000

P_10 0.690812 0.642645 0.538155 0.472567 0.435783 0.395382
P_10 0.439822 0.467511 0.516919 0.544140 0.564354 0.631137
P_10 0.738850 0.865449 1.003855 1.087149 1.103037 1.183624
P_10 1.189218 1.247322 1.286626 1.192931 1.316916 1.221382
P_10 1.140055 1.127624 1.001593 0.997580 1.018111 0.952001
P_10 0.872946 0.882696 0.853064 0.891517 0.954880 0.900146
P_10 0.936478 0.973331 1.053965 1.138844 0.999454 1.129329
P_10 1.115067 1.057468 1.031731 0.942372 0.863226 0.648723
P_10 0.651898 0.628522 0.508737 0.486056 0.432951 0.424446
P_10 0.419544 0.401520 0.493403 0.506605 0.599296 0.702656
P_10 0.795476 0.802453 1.004649 1.023000 1.074752 1.200722
P_10 1.102857 1.298291 1.282649 1.242864 1.203594 1.163657
P_10 1.265675 1.115070 0.935982 1.081630 0.939615 0.941139
P_10 0.951815 0.941110 0.910972 0.948122 1.017347 1.052331
P_10 0.947542 1.006401 1.057953 1.045133 1.193220 1.131893
P_10 1.118307 1.010692 0.901843 0.966911 0.838386 0.713692
P_10 0.598978 0.577148 0.488530 0.453476 0.402412 0.428123
P_10 0.430107 0.419027 0.512053 0.542535 0.634785 0.752429
P_10 0.885884 0.851248 0.981546 0.986806 1.038819 1.240824
P_10 1.210702 1.272798 1.177970 1.161524 1.255839 1.200203
P_10 1.051637 1.076417 1.069026 1.048407 0.913505 0.972203
P_10 1.045688 0.947605 0.962314 0.937413 0.972596 0.958801
P_10 1.041668 1.044307 0.896951 1.031394 1.024174 1.091786
P_10 1.061683 0.996670 1.030772 0.861777 0.814459 0.733878
P_10 0.663035 0.604277 0.526559 0.472987 0.398073 0.442755
P_10 0.423710 0.471794 0.452756 0.556591 0.635740 0.715567
P_10 0.772338 0.864635 1.047268 1.134302 1.043315 1.060979
P_10 1.236592 1.241912 1.196301 1.307440 1.169348 1.036067
P_10 1.161670 1.048078 0.939599 1.099086 1.040340 0.962508
P_10 0.930854 0.876079 0.983947 0.952905 0.968581 1.016734
P_10 0.998282 1.116697 1.077012 1.011036 1.039268 1.168000
P_10 1.078772 0.976899 0.953875 0.934022 0.790195 0.754432
P_10 0.623633 0.595140 0.557167 0.519374 0.472338 0.438272
P_10 0.460644 0.495689 0.531136 0.627714 0.705319 0.793976
P_10 0.964148 1.027624 1.108210 1.162283 1.201468 1.280965
P_10 1.348427 1.456833 1.348720 1.294311 1.360404 1.239775
P_10 1.204188 1.135146 1.106449 1.049640 1.126201 1.076832
P_10 1.029551 1.091561 1.003807 1.151264 1.047393 0.967683
P_10 0.994655 1.054280 1.022714 1.043188 1.003957 1.014949
P_10 1.031421 0.878108 0.953432 0.877804 0.866715 0.802617
P_10 0.726625 0.661679 0.530046 0.527388 0.517838 0.455162
P_10 0.525802 0.444305 0.518045 0.511801 0.565054 0.578666
P_10 0.697148 0.807734 0.826934 0.866237 0.971266 1.095081
P_10 1.025936 1.127111 1.097459 1.252736 1.209227 1.091964
P_10 1.116781 1.208002 1.129544 1.088165 0.922379 1.080435
P_10 1.113903 0.994631 1.017942 1.149532 1.046366 1.018568
P_10 1.006424 0.997331 1.101591 0.962620 0.998313 0.928414
P_10 0.913463 0.948654 0.878073 0.776234 0.711912 0.696417
P_10 0.648024 0.610786 0.623125 0.583043 0.511811 0.515616
P_10 0.451470 0.483598 0.465425 0.505252 0.529096 0.543701
P_10 0.586530 0.603364 0.685470 0.767693 0.792848 0.817107
P_10 0.979750 0.962820 1.035538 1.067431 1.025987 1.064499
P_10 1.100335 0.991259 1.023748 0.981624 0.974095 1.003521
P_10 0.990773 0.925249 0.900841 0.914219 1.005485 0.930562
P_10 0.965557 1.009408 0.987260 1.013623 1.055348 1.025721
P_10 1.032189 0.808165 0.873204 0.883714 0.777300 0.731259
P_10 0.653938 0.557419 0.502923 0.439211 0.430433 0.406324
P_10 0.424437 0.454016 0.515804 0.557206 0.634263 0.742652
P_10 0.747948 0.962851 0.996830 1.017433 1.113606 1.169572
P_10 1.316892 1.207562 1.286675 1.369693 1.313778 1.211655
P_10 1.236336 1.071981 1.139273 1.111450 1.019724 0.948205
P_10 0.866378 0.857916 0.904513 0.910647 0.930244 1.039748
P_10 1.026930 1.054401 0.922035 1.077153 1.051881 1.030942
P_10 1.010556 1.024750 0.991127 0.950417 0.848443 0.787224
P_10 0.722305 0.614005 0.548274 0.473726 0.400384 0.430047
P_10 0.447278 0.425754 0.510040 0.547384 0.613684 0.679836
P_10 0.778797 0.855439 0.926603 1.024963 1.072717 1.108252
P_10 1.136191 1.221807 1.296945 1.252548 1.232822 1.342231
P_10 1.133632 1.141894 1.013990 1.092349 0.923170 0.979405
P_10 0.957932 0.872561 0.900766 0.987355 0.918840 0.991873
P_10 1.116661 1.112210 1.192902 1.140469 1.125741 1.116998
P_10 1.088614 1.042863 0.900540 0.897578 0.804200 0.725292
P_10 0.653294 0.539329 0.503539 0.521006 0.459372 0.406715
P_10 0.395506 0.412306 0.504377 0.564493 0.619040 0.731622
P_10 0.828210 0.923963 1.021906 1.093788 1.146127 1.128443
P_10 1.353457 1.246069 1.241815 1.289413 1.191099 1.142519
P_10 1.274227 1.204543 1.136984 1.085150 1.033360 1.052419
P_10 1.011227 1.005305 1.053338 1.000770 0.981488 1.033755
P_10 1.061052 1.020086 1.011218 1.157966 1.064447 1.160671
P_10 1.033819 1.073747 1.024970 0.850225 0.839136 0.796085
P_10 0.640591 0.604531 0.557169 0.477209 0.435868 0.432791
P_10 0.455462 0.442043 0.458939 0.576946 0.655106 0.685785
P_10 0.821305 0.894765 0.970043 1.086758 1.108698 1.139536
P_10 1.230214 1.201200 1.154134 1.216713 1.205759 1.131051
P_10 1.065889 1.044304 1.065855 0.988461 0.935759 0.911931
P_10 0.951109 0.879392 0.974214 0.970735 1.041766 0.960539
P_10 1.075710 1.071805 1.098568 0.972133 1.159901 1.134318
P_10 1.005117 0.924344 0.946143 0.925753 0.833892 0.698902
P_10 0.721729 0.582050 0.568982 0.529200 0.477328 0.447887
P_10 0.433493 0.464530 0.556715 0.581985 0.663359 0.882748
P_10 0.877174 0.996811 1.186324 1.205882 1.310724 1.328992
P_10 1.451838 1.328643 1.457927 1.469040 1.287860 1.224895
P_10 1.250312 1.144829 0.983414 1.059947 1.046715 1.001396
P_10 1.013807 0.974668 1.036724 1.027629 1.048183 0.928447
P_10 1.116049 0.998325 1.143607 1.063908 1.098992 0.948674
P_10 1.024501 0.927298 1.003307 0.817160 0.880375 0.862091
P_10 0.745274 0.653008 0.620208 0.599601 0.472028 0.522445
P_10 0.494793 0.451591 0.486616 0.518130 0.547688 0.633119
P_10 0.670379 0.721345 0.759813 0.923294 0.931509 0.988289
P_10 1.099592 1.045802 1.193763 1.191105 1.150539 1.183061
P_10 1.170369 1.149097 1.111870 1.092267 1.032090 1.070838
P_10 1.102488 1.044668 0.994700 0.977863 0.975015 1.182496
P_10 1.071566 0.994095 0.891082 1.036627 1.036172 0.954368
P_10 0.900596 0.989011 0.916022 0.795366 0.748012 0.698370
P_10 0.612496 0.599781 0.594285 0.498144 0.541368 0.488570
P_10 0.450331 0.476909 0.497042 0.508195 0.520029 0.506621
P_10 0.548244 0.660387 0.690623 0.726556 0.792766 0.856196
P_10 0.955120 1.031705 1.051917 1.088249 1.059021 1.129484
P_10 1.064461 1.031634 1.084500 1.038446 1.056776 1.044733
P_10 0.965601 0.985070 1.045846 0.943032 0.924774 1.020121
P_10 0.969434 0.973494 0.989908 1.171260 0.941388 1.024114
P_10 1.032514 0.974465 0.948610 0.818275 0.722891 0.813638
P_10 0.597250 0.577471 0.513689 0.488983 0.452817 0.410855
P_10 0.460701 0.472359 0.468802 0.561590 0.632914 0.622823
P_10 0.739148 0.907227 0.967683 1.069940 1.055585 1.252122
P_10 1.274828 1.226043 1.253953 1.299964 1.354489 1.185898
P_10 1.186210 1.097590 1.076914 1.025003 1.027660 1.017492
P_10 0.846583 0.873612 0.902201 0.909835 0.947644 0.945225
P_10 0.971513 1.012350 1.132259 1.024039 1.070907 1.099059
P_10 1.041355 1.072525 1.009245 1.000117 0.822948 0.792848
P_10 0.718453 0.611150 0.550868 0.502635 0.477457 0.428482
P_10 0.419009 0.426877 0.479647 0.553222 0.612941 0.690894
P_10 0.693556 0.899226 0.938249 0.973181 1.076152 1.143670
P_10 1.191618 1.222148 1.241338 1.214137 1.162710 1.150954
P_10 1.016179 1.185783 1.130022 1.049248 0.983302 1.068538
P_10 0.983250 0.989315 0.964700 0.973564 0.910628 0.951832
P_10 1.006401 1.005518 1.148661 1.121950 1.108040 1.056802
P_10 1.091379 1.055575 0.945322 1.017590 0.822579 0.727643
P_10 0.684962 0.556979 0.535876 0.510261 0.430230 0.427525
P_10 0.419019 0.455796 0.483136 0.550195 0.697834 0.720350
P_10 0.772408 0.921813 1.023278 1.013700 1.147457 1.123717
P_10 1.105933 1.184083 1.271833 1.321219 1.300902 1.199695
P_10 1.136792 1.060852 1.145106 1.181916 1.059865 1.031390
P_10 0.992767 1.047209 0.993224 1.014674 1.004714 1.010977
P_10 1.044675 1.040544 1.046001 1.123314 1.012005 1.143608
P_10 1.014507 1.094555 0.995476 0.889505 0.801187 0.785420
P_10 0.692035 0.637643 0.536132 0.482934 0.464354 0.436391
P_10 0.403416 0.447649 0.547899 0.569405 0.617562 0.774598
P_10 0.863157 0.879272 0.983596 1.060655 1.241064 1.272728
P_10 1.195052 1.148719 1.290266 1.203208 1.216203 1.109768
P_10 1.218745 1.110022 1.072277 1.166022 0.962775 0.962735
P_10 0.861461 0.944784 1.027269 0.927480 1.018045 1.059494
P_10 1.070482 1.141130 1.117851 1.126072 1.058060 1.150949
P_10 1.104467 1.057954 1.004381 0.949631 0.893745 0.747332
P_10 0.710973 0.628666 0.558483 0.491632 0.474762 0.480398
P_10 0.446273 0.473152 0.542888 0.547918 0.758777 0.853220
P_10 0.930506 1.039355 1.218868 1.252290 1.227451 1.270986
P_10 1.363593 1.444455 1.449058 1.333365 1.329398 1.401659
P_10 1.321460 1.161377 1.210774 1.183473 1.109781 1.058628
P_10 1.025462 1.086297 1.077420 1.067004 1.094522 1.087264
P_10 1.020357 1.007077 1.076330 1.104567 1.014666 0.994973
P_10 1.002003 0.936183 0.950936 0.869675 0.982515 0.742930
P_10 0.728860 0.656178 0.646510 0.551883 0.546420 0.515050
P_10 0.465378 0.486154 0.489927 0.519960 0.566297 0.613802
P_10 0.700331 0.746888 0.790292 0.897203 1.038756 1.025689
P_10 1.189562 1.201332 1.211483 1.045472 1.201443 1.260288
P_10 1.153941 1.130693 1.209695 1.057859 1.207379 1.024898
P_10 1.068998 0.980762 0.982587 1.084901 1.035570 1.103761
P_10 0.951273 1.040412 1.024338 1.021175 1.005938 0.947072
P_10 0.947309 0.985120 0.850470 0.759573 0.794035 0.709394
P_10 0.639760 0.599380 0.578027 0.557294 0.545347 0.524690
P_10 0.495193 0.480655 0.480960 0.483625 0.518115 0.520903
P_10 0.631645 0.551122 0.728286 0.813878 0.805041 0.895341
P_10 0.920393 1.100482 1.073282 1.074843 1.070280 1.125254
P_10 1.000454 1.049740 1.080620 1.031258 0.989116 0.953233
P_10 0.925966 1.011994 0.863020 0.925431 1.025755 0.985693
P_10 1.020880 1.051669 1.051891 1.006951 1.030379 1.031803
P_10 0.991018 1.020505 0.890645 0.898413 0.775409 0.744964
P_10 0.602079 0.624443 0.497566 0.470158 0.428570 0.455585
P_10 0.434165 0.517751 0.472598 0.563158 0.648415 0.682478
P_10 0.814736 0.912753 0.990476 1.045181 1.174382 1.294230
P_10 1.265077 1.394035 1.308457 1.326814 1.357521 1.156565
P_10 1.196831 1.181566 1.156926 1.021980 1.018154 0.954494
P_10 0.967371 0.885577 0.990096 0.879557 0.958461 0.932355
P_10 1.040460 1.052330 1.109085 1.065253 1.155296 1.216946
P_10 1.085176 1.043235 1.007791 0.857646 0.870249 0.761789
P_10 0.673907 0.626842 0.507922 0.499215 0.457093 0.410643
P_10 0.392360 0.458987 0.474743 0.576269 0.578334 0.736619
P_10 0.792131 0.819172 1.087096 1.123761 1.145484 1.077273
P_10 1.422657 1.196524 1.400662 1.298347 1.259008 1.257040
P_10 1.154097 1.125573 1.064580 1.075956 0.960128 1.095346
P_10 0.918879 0.862530 0.943463 0.954642 0.987776 0.920344
P_10 1.052517 1.059504 1.193025 1.140051 1.109593 1.169212
P_10 1.084348 1.043835 1.127750 0.909939 0.782873 0.792311
P_10 0.694807 0.662937 0.535543 0.450441 0.446348 0.456200
P_10 0.433157 0.468932 0.545995 0.652819 0.643581 0.759079
P_10 0.781511 0.918495 1.053759 1.148701 1.262797 1.199324
P_10 1.196216 1.274798 1.295248 1.223677 1.314519 1.100430
P_10 1.229848 1.092085 1.233019 1.042950 1.025819 1.034207
P_10 1.092763 1.013160 1.089049 1.092188 1.040772 1.079079
P_10 0.959434 1.091154 1.123965 1.022292 1.087152 1.116770
P_10 1.076728 0.949167 0.987820 0.913733 0.903761 0.777050
P_10 0.741720 0.619152 0.557881 0.506952 0.430770 0.434279
P_10 0.452979 0.422337 0.506171 0.585537 0.712567 0.783215
P_10 0.878054 0.908597 1.085720 1.113793 1.147347 1.175190
P_10 1.242398 1.199582 1.334119 1.235702 1.241605 1.239503
P_10 1.130246 1.128293 1.173255 0.957713 0.960468 0.968338
P_10 0.969050 1.027598 0.981131 0.911060 1.036029 1.111701
P_10 1.001598 1.075203 1.211383 1.085271 1.099001 1.070886
P_10 1.050739 1.178553 0.994422 0.869782 0.944388 0.828282
P_10 0.741372 0.624314 0.593906 0.514314 0.460859 0.461018
P_10 0.452949 0.510914 0.558812 0.597254 0.685301 0.815529
P_10 0.909069 1.114468 1.032927 1.200524 1.454832 1.365260
P_10 1.554783 1.427996 1.536709 1.434275 1.370046 1.395020
P_10 1.259453 1.281330 1.172811 1.163861 1.110832 1.047325
P_10 1.125727 1.022266 1.101089 1.016277 1.055662 1.070595
P_10 1.098057 1.092663 1.144895 1.126811 1.090853 1.125149
P_10 1.029816 1.098869 0.945578 0.995348 0.833592 0.846831
P_10 0.765767 0.689622 0.593857 0.612015 0.524019 0.526322
P_10 0.497947 0.509274 0.517264 0.535202 0.552924 0.659021
P_10 0.705527 0.764876 0.899471 0.956296 1.026777 1.034842
P_10 1.222317 1.133473 1.095814 1.201582 1.124041 1.160608
P_10 1.154991 1.228729 1.070985 1.045120 1.060331 1.087359
P_10 1.088495 1.015386 1.028832 1.128180 1.051464 1.171389
P_10 1.113316 1.199646 1.040393 1.100368 0.979508 0.906276
P_10 0.962739 0.877737 0.878220 0.789746 0.757091 0.756092
P_10 0.725502 0.662126 0.650004 0.598788 0.516864 0.504356
P_10 0.453055 0.504045 0.476680 0.490019 0.548510 0.568199
P_10 0.562447 0.672649 0.686554 0.779205 0.860181 0.937363
P_10 0.935199 1.025618 1.061136 1.085808 1.174703 1.196319
P_10 1.200379 1.178227 1.082216 1.045246 1.085375 1.088043
P_10 1.016892 1.036950 0.912096 0.978426 0.940044 1.040488
P_10 1.049590 1.012212 1.020220 1.088668 0.997392 1.066456
P_10 1.059337 0.979436 0.984549 0.874054 0.829445 0.698078
P_10 0.729624 0.603904 0.539294 0.499417 0.448353 0.424091
P_10 0.468039 0.455976 0.518344 0.551737 0.683318 0.745564
P_10 0.807428 0.956257 1.015582 1.202699 1.143378 1.136563
P_10 1.421415 1.374294 1.464887 1.337610 1.444173 1.267064
P_10 1.193094 1.163869 1.206443 1.087384 1.011998 1.030725
P_10 0.955479 0.821464 0.914480 0.957335 0.924324 1.039032
P_10 1.002404 1.092402 1.109135 1.123839 1.125071 1.160476
P_10 1.157296 1.120776 1.031141 1.033870 0.934032 0.758087
P_10 0.753886 0.586413 0.542345 0.499577 0.488463 0.415454
P_10 0.434582 0.450237 0.518358 0.565897 0.667543 0.728836
P_10 0.794664 0.902425 1.055343 1.000746 1.246131 1.188655
P_10 1.210213 1.259840 1.352833 1.232249 1.330552 1.170548
P_10 1.243775 1.187242 1.083101 1.098907 1.107892 0.972114
P_10 1.000586 0.979465 1.007273 0.980088 0.995795 0.954748
P_10 1.044118 1.049506 1.079859 1.221765 1.131585 1.162350
P_10 1.143803 1.111581 1.087775 0.937819 0.838638 0.837670
P_10 0.742441 0.627830 0.522792 0.459718 0.461481 0.447187
P_10 0.454906 0.504174 0.485193 0.628113 0.749049 0.801371
P_10 0.894924 0.983148 1.094453 1.083087 1.195707 1.237340
P_10 1.252534 1.249211 1.382164 1.321743 1.356730 1.347585
P_10 1.255748 1.248718 1.221233 1.125277 1.184842 1.122364
P_10 1.076226 1.043273 0.945528 1.069446 1.003531 1.175016
P_10 1.013959 1.075486 1.162977 1.134784 1.238640 1.057740
P_10 1.158489 1.059073 0.961413 1.036463 0.840490 0.798199
P_10 0.690866 0.633571 0.580899 0.511312 0.495765 0.490404
P_10 0.446464 0.452495 0.533626 0.549412 0.695684 0.796401
P_10 0.865764 0.943404 0.967659 1.221211 1.210869 1.239198
P_10 1.271948 1.218502 1.230779 1.267616 1.189871 1.240659
P_10 1.163856 1.128789 1.060878 1.118390 0.946742 1.003462
P_10 0.963306 0.955641 1.047469 0.989008 1.117516 0.945746
P_10 1.060053 1.181382 1.144474 1.103887 1.158104 1.105279
P_10 1.070821 0.967423 0.966649 1.061643 0.922077 0.821270
P_10 0.695419 0.646983 0.569066 0.599632 0.520639 0.460787
P_10 0.461490 0.511970 0.527200 0.617346 0.639517 0.793382
P_10 1.039019 1.068268 1.169287 1.353713 1.315926 1.456442
P_10 1.381029 1.484843 1.547677 1.409878 1.322674 1.412259
P_10 1.270101 1.193143 1.163916 1.094058 1.115533 1.040939
P_10 1.132853 1.048099 1.002878 1.066840 1.143676 1.046924
P_10 1.071784 1.071626 1.117900 0.981298 1.043117 1.143746
P_10 1.065859 1.006266 1.004729 0.980958 0.765815 0.794618
P_10 0.806627 0.700713 0.629801 0.582457 0.539728 0.532121
P_10 0.498018 0.536633 0.527289 0.500737 0.583334 0.621263
P_10 0.737897 0.791798 0.913478 0.925986 0.979229 1.140523
P_10 1.171900 1.244793 1.127778 1.202873 1.263879 1.245447
P_10 1.288858 1.255979 1.255070 1.176371 1.164540 0.996072
P_10 1.066626 1.096117 0.998038 1.174503 1.079244 1.112975
P_10 1.166729 1.167921 1.115870 1.089071 1.116010 0.952139
P_10 0.994439 1.033249 0.885854 0.822255 0.789539 0.741152
P_10 0.747734 0.759299 0.645396 0.593141 0.529779 0.503999
P_10 0.498756 0.540367 0.490524 0.519335 0.525902 0.564935
P_10 0.567166 0.644372 0.710176 0.777088 0.836262 0.939237
P_10 1.125854 0.987530 1.138079 1.202934 1.168695 1.242461
P_10 1.165267 1.131470 1.169818 1.071544 1.106709 0.980724
P_10 1.033757 0.960150 0.914972 1.040732 1.040106 0.929978
P_10 1.126466 1.084554 1.019815 1.076187 1.121579 1.002844
P_10 1.095858 0.987840 0.929857 0.920425 0.814479 0.740961
P_10 0.690559 0.640794 0.618192 0.548673 0.453219 0.435991
P_10 0.490300 0.455394 0.532442 0.564605 0.596638 0.709585
P_10 0.832255 0.933606 0.958827 1.159866 1.190390 1.281335
P_10 1.262430 1.373834 1.327554 1.405776 1.439612 1.317922
P_10 1.309264 1.231316 1.154713 1.228678 0.928946 1.070136
P_10 0.971086 0.936328 0.949866 0.976880 1.010123 1.105770
P_10 1.224450 1.090548 1.145882 1.125943 1.143739 1.218448
P_10 1.157506 1.087574 0.996766 1.026649 0.841624 0.848487
P_10 0.677099 0.696214 0.554843 0.491499 0.475487 0.433477
P_10 0.412246 0.444369 0.558803 0.602004 0.646894 0.778838
P_10 0.877794 0.909655 1.048302 1.203660 1.156091 1.226894
P_10 1.209209 1.375777 1.319081 1.413192 1.299296 1.255789
P_10 1.273274 1.168924 1.060642 1.032392 1.092125 0.979755
P_10 0.949487 0.955987 1.010427 0.983832 0.976435 1.097906
P_10 1.160231 1.245141 1.159943 1.199879 1.221049 1.130047
P_10 1.006701 1.068994 1.098002 1.049476 0.868528 0.801790
P_10 0.689795 0.665440 0.557678 0.503216 0.473916 0.469770
P_10 0.421861 0.476392 0.507880 0.619438 0.724241 0.758814
P_10 0.831959 0.953190 0.986344 1.112159 1.282603 1.241793
P_10 1.284897 1.392455 1.363312 1.331422 1.233748 1.231209
P_10 1.314924 1.277649 1.245252 1.211569 1.105027 1.097010
P_10 1.042303 1.016673 1.072508 1.100285 1.178071 1.140896
P_10 1.062132 1.025326 1.162253 1.188945 1.219581 1.224769
P_10 1.105528 1.095046 0.954506 1.064983 0.829039 0.860344
P_10 0.790077 0.661362 0.617736 0.475257 0.476685 0.480911
P_10 0.445863 0.506001 0.552304 0.618718 0.689909 0.757584
P_10 0.883664 0.944499 1.126891 1.175570 1.188815 1.242178
P_10 1.297046 1.332052 1.322810 1.276237 1.235574 1.324269
P_10 1.155953 1.214283 1.103409 1.020478 1.061608 1.096132
P_10 0.974594 1.014803 1.056720 1.012551 1.068416 1.199699
P_10 1.112683 1.133794 1.184838 1.163248 1.213016 1.131449
P_10 1.160510 1.015929 1.061545 1.048629 0.876228 0.825808
P_10 0.800745 0.620182 0.577767 0.509000 0.516625 0.483431
P_10 0.496405 0.510043 0.612993 0.643909 0.765969 0.811456
P_10 0.995445 1.124949 1.213887 1.202731 1.441498 1.436107
P_10 1.534726 1.575513 1.429461 1.569074 1.358763 1.383962
P_10 1.289493 1.271502 1.213373 1.167872 1.209455 1.059167
P_10 1.132469 1.078766 1.156379 1.202429 1.207575 1.111986
P_10 1.103841 1.085850 1.111373 1.120939 1.080409 1.102347
P_10 1.096236 1.036616 1.014419 0.910643 0.967252 0.814341
P_10 0.792883 0.681561 0.662445 0.621734 0.495471 0.538720
P_10 0.501624 0.519909 0.482970 0.591463 0.615507 0.584635
P_10 0.719860 0.760518 1.001599 0.972615 1.119798 1.117721
P_10 1.231881 1.307933 1.255357 1.224547 1.174582 1.252923
P_10 1.317026 1.263820 1.301568 1.222696 1.150860 1.088640
P_10 1.163838 1.136638 1.073234 1.154491 1.188144 1.221016
P_10 1.094601 1.128725 1.239747 1.070687 1.064026 1.087927
P_10 0.975745 0.946353 0.860677 0.787533 0.773544 0.775424
P_10 0.701909 0.661433 0.606503 0.613283 0.547989 0.550667
P_10 0.503679 0.481094 0.561370 0.583307 0.583468 0.548688
P_10 0.608927 0.668638 0.723047 0.800236 0.980734 0.879965
P_10 0.954476 1.085347 1.126856 1.257301 1.017717 1.179697
P_10 1.314439 1.248717 1.175785 1.162739 1.119808 1.035879
P_10 1.039087 1.053448 0.908870 1.077836 1.053357 1.110013
P_10 1.021652 0.959109 1.187795 1.128555 1.033762 1.177935
P_10 1.005620 0.987476 1.071444 0.976606 0.843611 0.700997
P_10 0.711051 0.609666 0.570400 0.555573 0.517601 0.469258
P_10 0.410985 0.472921 0.518725 0.602743 0.612273 0.745634
P_10 0.787622 0.944448 1.173236 1.026499 1.302552 1.297907
P_10 1.333404 1.308698 1.458630 1.412779 1.399852 1.322197
P_10 1.271388 1.165309 1.202388 1.062578 0.992122 0.994762
P_10 0.889664 0.992446 0.987350 0.917193 0.926172 1.014041
P_10 1.034007 1.117296 1.127693 1.159328 1.214625 1.228712
P_10 1.219996 1.113095 1.160045 1.060229 0.924251 0.858659
P_10 0.720602 0.641002 0.568333 0.568904 0.479877 0.465874
P_10 0.428167 0.503274 0.509597 0.567878 0.649026 0.753495
P_10 0.819505 0.996720 1.062373 1.147034 1.286693 1.239707
P_10 1.412710 1.271770 1.297494 1.321629 1.293200 1.314225
P_10 1.346117 1.245991 1.184756 1.083601 1.037184 1.096081
P_10 1.028094 0.924440 1.103173 1.083699 1.062081 1.090132
P_10 1.055533 1.148084 1.233620 1.196972 1.152050 1.282184
P_10 1.275551 1.115847 1.060161 1.023126 0.780417 0.838801
P_10 0.723483 0.660069 0.619507 0.577969 0.489270 0.497706
P_10 0.513807 0.511538 0.569444 0.665224 0.715528 0.765123
P_10 0.820343 1.066607 0.961240 1.157833 1.201418 1.311466
P_10 1.293039 1.469490 1.387704 1.243149 1.408386 1.244035
P_10 1.386449 1.229836 1.239617 1.183654 1.078715 1.041985
P_10 1.068729 1.102121 1.023744 1.006187 1.140584 1.151591
P_10 0.999538 1.099762 1.123784 1.193529 1.195721 1.179298
P_10 1.217144 1.079987 1.033209 1.091181 0.975748 0.901509
P_10 0.738352 0.702914 0.519232 0.538261 0.486156 0.496851
P_10 0.476189 0.536471 0.563968 0.597347 0.686376 0.848229
P_10 0.904794 1.011381 1.134289 1.059411 1.238400 1.334982
P_10 1.209337 1.352368 1.394217 1.425614 1.248832 1.234785
P_10 1.240853 1.206845 1.209034 1.116221 1.093390 1.109586
P_10 1.066004 0.992088 0.964979 1.041735 1.066885 1.150033
P_10 1.200967 1.198262 1.188624 1.346528 1.062471 1.284724
P_10 1.196745 1.090173 1.093977 1.050080 0.929678 0.782375
P_10 0.715167 0.692493 0.612972 0.570750 0.472198 0.481969
P_10 0.467016 0.541218 0.605731 0.665962 0.811587 0.997512
P_10 1.021372 1.157367 1.237246 1.328660 1.396101 1.537008
P_10 1.630474 1.476923 1.552069 1.609533 1.616668 1.380526
P_10 1.284995 1.289122 1.233533 1.163941 1.172342 1.086138
P_10 1.147971 0.990386 1.057285 1.135937 1.225564 1.051482
P_10 1.142541 1.121478 1.210761 1.116563 1.094498 1.150886
P_10 1.089737 1.107686 1.055969 0.860097 0.965992 0.894502
P_10 0.795126 0.701982 0.650416 0.558449 0.547519 0.552454
P_10 0.529195 0.550284 0.497113 0.578546 0.610904 0.705832
P_10 0.739946 0.889355 0.904949 1.043464 1.005600 1.139445
P_10 1.196551 1.323478 1.197224 1.365413 1.337777 1.386661
P_10 1.308186 1.344189 1.178220 1.139441 1.226880 1.222987
P_10 1.189869 1.180417 1.225152 1.150668 1.108501 1.032422
P_10 1.195252 1.201573 1.257178 1.086898 1.153029 1.120368
P_10 1.060194 0.949853 0.922881 0.865248 0.826507 0.765224
P_10 0.770873 0.661758 0.615493 0.590642 0.541746 0.581305
P_10 0.546237 0.517579 0.540810 0.527411 0.542183 0.600655
P_10 0.604548 0.685979 0.709874 0.884809 0.904662 0.995528
P_10 0.986965 1.063107 1.191159 1.199167 1.257366 1.249080
P_10 1.284410 1.202669 1.026213 1.081093 1.095271 1.021783
P_10 1.083642 1.101101 1.038446 0.955184 1.052019 1.041473
P_10 1.115627 1.044006 1.068281 1.097843 1.105783 1.069211
P_10 1.081434 1.044948 0.993106 0.946552 0.866297 0.829179
P_10 0.684818 0.665914 0.618121 0.520887 0.473076 0.476057
P_10 0.418499 0.524496 0.525901 0.589585 0.667466 0.710127
P_10 0.842342 0.891724 1.052166 1.230467 1.210608 1.419812
P_10 1.398643 1.485306 1.509183 1.429700 1.449386 1.287642
P_10 1.251953 1.305104 1.175269 1.114775 1.108081 1.110006
P_10 1.019999 1.046161 0.934802 1.059982 1.061547 1.130295
P_10 1.042246 1.165419 1.198797 1.321890 1.132736 1.223059
P_10 1.270815 1.163965 1.080158 1.073958 0.918831 0.882671
P_10 0.714817 0.705996 0.633576 0.508461 0.532333 0.425797
P_10 0.455605 0.486414 0.512228 0.551693 0.663793 0.805805
P_10 0.888475 0.946906 1.024927 1.286285 1.097359 1.095121
P_10 1.470434 1.505511 1.299110 1.439237 1.354707 1.378305
P_10 1.298206 1.299454 1.219024 1.088072 1.127087 1.042151
P_10 1.044960 0.970895 1.050925 0.982871 1.076209 1.193080
P_10 1.059411 1.192264 1.225778 1.357626 1.159369 1.303904
P_10 1.145795 1.200319 1.093555 0.983544 0.937996 0.887520
P_10 0.767506 0.589715 0.619427 0.507674 0.501955 0.487800
P_10 0.486516 0.525198 0.610850 0.717382 0.682884 0.835758
P_10 0.916327 0.912205 1.133233 1.113991 1.231286 1.273316
P_10 1.320189 1.353702 1.405319 1.404717 1.435376 1.512197
P_10 1.295510 1.222329 1.192611 1.151402 1.171051 1.221232
P_10 1.097253 1.053780 1.096364 1.062131 1.058960 1.108814
P_10 1.097669 1.199650 1.133591 1.223177 1.211801 1.197454
P_10 1.274959 1.102464 1.083877 0.921978 0.942742 0.840395
P_10 0.759965 0.671357 0.634126 0.560541 0.476317 0.487946
P_10 0.502670 0.517980 0.548499 0.642104 0.719305 0.858835
P_10 0.941851 1.043410 1.082100 1.306668 1.242621 1.438573
P_10 1.292792 1.363704 1.329883 1.380971 1.391880 1.223240
P_10 1.181317 1.250256 1.230025 1.150623 0.994897 1.093949
P_10 1.096033 1.045681 0.978328 1.185063 1.135544 1.234562
P_10 1.144925 1.214890 1.303313 1.245118 1.264048 1.168387
P_10 1.169302 1.195009 1.039175 0.958244 0.942812 0.820085
P_10 0.823800 0.735021 0.665998 0.533028 0.532339 0.508692
P_10 0.564704 0.487422 0.619355 0.667118 0.877132 0.896141
P_10 1.025269 1.131757 1.242784 1.435551 1.486322 1.527183
P_10 1.603365 1.534568 1.573500 1.588656 1.391540 1.454117
P_10 1.427165 1.370784 1.264916 1.216775 1.144087 1.123006
P_10 1.006933 1.030678 1.061602 1.194482 1.143573 1.220547
P_10 1.070598 1.127396 1.103348 1.230131 1.237736 1.255424
P_10 1.145636 0.972865 0.955218 1.041946 1.020420 0.873366
P_10 0.764511 0.689123 0.697693 0.633701 0.631995 0.566766