; Filename: networks/Net1.inp
; WNTR: 0.1.6
; Created: 2019-04-09 13:21:20
[TITLE]
EPANET Example Network 1
A simple example of modeling chlorine decay. Both bulk and
wall reactions are included.

[JUNCTIONS]
;ID                      Elevation       Demand Pattern                 
 10                               710               0                            ;
 11                               710               0                            ;
 12                               700               0                            ;
 13                               695               0                            ;
 21                               700               0                            ;
 22                               695               0                            ;
 23                               690               0                            ;
 31                               700               0                            ;
 32                               710               0                            ;

[RESERVOIRS]
;ID                                   Head                  Pattern
 9                                800                            ;

[TANKS]
;ID                              Elevation           Init Level            Min Level            Max Level             Diameter           Min Volume Volume Curve        
 2                                850             120             100             150            50.5               0                        ;

[PIPES]
;ID                   Node1                Node2                              Length             Diameter            Roughness           Minor Loss               Status
 10                   10                   11                             10530              18             100               0                 Open   ;
 11                   11                   12                              5280              14             100               0                 Open   ;
 12                   12                   13                              5280              10             100               0                 Open   ;
 21                   21                   22                              5280              10             100               0                 Open   ;
 22                   22                   23                              5280              12             100               0                 Open   ;
 31                   31                   32                              5280               6             100               0                 Open   ;
 110                  2                    12                               200              18             100               0                 Open   ;
 111                  11                   21                              5280              10             100               0                 Open   ;
 112                  12                   22                              5280              12             100               0                 Open   ;
 113                  13                   23                              5280               8             100               0                 Open   ;
 121                  21                   31                              5280               8             100               0                 Open   ;
 122                  22                   32                              5280               6             100               0                 Open   ;

[PUMPS]
;ID                   Node1                Node2                Properties          
 9                    9                    10                   HEAD     1                      ;

[VALVES]
;ID                   Node1                Node2                            Diameter Type              Setting           Minor Loss

[TAGS]
;type      name       tag       

[DEMANDS]
;ID        Demand     Pattern   
10         0.0        P_10      
11         150.0      P_11      
12         150.0      P_12      
13         100.0      P_13      
21         150.0      P_21      
22         200.0      P_22      
23         150.0      P_23      
31         100.0      P_31      
32         100.0      P_32      

[STATUS]
;ID        Setting   
[PATTERNS]
;ID        Multipliers

1 1.000000 1.200000 1.400000 1.600000 1.400000 1.200000
1 1.000000 0.800000 0.600000 0.400000 0.600000 0.800000

P_10 0.619975 0.555087 0.483228 0.434647 0.376418 0.418035
P_10 0.412743 0.407497 0.433624 0.497890 0.601509 0.654081
P_10 0.755847 0.792980 0.870935 0.978150 1.084408 1.187574
P_10 1.316307 1.258391 1.146443 1.210002 1.322400 1.293977
P_10 1.078570 1.153448 0.991226 0.958914 0.955432 0.931202
P_10 0.936642 0.883830 0.877214 0.917722 0.902927 0.966351
P_10 0.909329 0.959407 1.044460 1.102455 1.027456 1.078742
P_10 1.127436 1.060746 0.939319 0.911155 0.855793 0.733350
P_10 0.654174 0.542522 0.484905 0.510290 0.383551 0.449857
P_10 0.384895 0.428711 0.480473 0.524853 0.614553 0.667714
P_10 0.773974 0.905737 0.958335 0.991286 1.120950 1.112913
P_10 1.139632 1.212958 1.246688 1.176695 1.102171 1.162367
P_10 1.164177 1.052501 0.993901 1.074891 1.015410 0.908072
P_10 0.908036 0.918366 0.969192 0.956743 1.002053 0.961068
P_10 1.089796 1.115713 1.036253 1.119783 1.123517 1.184290
P_10 1.020200 1.008605 0.976983 0.917932 0.819846 0.723608
P_10 0.562963 0.595244 0.482454 0.444994 0.440787 0.393754
P_10 0.478069 0.469577 0.477815 0.546418 0.603603 0.693963
P_10 0.760341 0.904650 0.951821 1.050898 1.064977 1.218879
P_10 1.180606 1.134255 1.240399 1.211764 1.184773 1.136181
P_10 1.131925 1.096088 0.996442 0.965010 1.064940 0.930751
P_10 0.926653 0.868535 0.997992 0.931770 0.941308 1.031730
P_10 1.023795 1.021531 1.066816 1.139233 1.070530 1.087034
P_10 1.084705 1.050329 0.974773 0.987308 0.881195 0.713832
P_10 0.720818 0.616078 0.564114 0.458066 0.430905 0.395345
P_10 0.407922 0.428033 0.503295 0.578143 0.683128 0.676320
P_10 0.838193 0.857377 1.020588 1.105362 1.069108 1.036509
P_10 1.206264 1.190762 1.181452 1.291110 1.146616 1.114930
P_10 1.048510 1.133684 1.118411 0.998110 0.866014 0.997734
P_10 0.886583 0.886713 1.044726 0.912522 0.962938 1.045514
P_10 1.094924 1.061860 1.144964 1.107590 1.131376 1.054297
P_10 1.123494 1.077766 0.899062 0.870506 0.858398 0.783073
P_10 0.670212 0.640803 0.495183 0.529310 0.473180 0.441952
P_10 0.463233 0.507485 0.589354 0.558998 0.721310 0.801338
P_10 0.875835 0.968043 1.062414 1.162691 1.314821 1.302152
P_10 1.345264 1.319258 1.342040 1.348289 1.358779 1.184182
P_10 1.090790 1.121309 1.084013 1.073105 1.000384 1.011389
P_10 0.984299 0.999761 1.048536 0.978516 1.005431 0.948969
P_10 1.035191 1.010226 1.076850 1.024720 1.052601 1.017846
P_10 0.973895 1.091736 0.926678 0.870415 0.865720 0.775012
P_10 0.717597 0.634625 0.530761 0.518974 0.526075 0.475411
P_10 0.423715 0.446908 0.534912 0.511213 0.543968 0.549247
P_10 0.697820 0.776496 0.859460 1.003487 1.051489 1.028987
P_10 1.048306 1.082453 1.105481 1.102781 1.161571 1.078667
P_10 1.148436 1.012077 1.074441 0.996105 0.971137 0.959630
P_10 1.007118 1.098099 0.985676 1.026440 1.118999 1.031764
P_10 1.004486 0.909900 0.992866 1.049793 1.043777 1.039987
P_10 0.969517 0.838864 0.899030 0.831957 0.758536 0.627276
P_10 0.686592 0.562129 0.629953 0.528540 0.476710 0.442542
P_10 0.464687 0.467510 0.444928 0.507208 0.497148 0.533592
P_10 0.592859 0.579402 0.665011 0.718675 0.773155 0.886037
P_10 0.856933 0.990037 1.031108 1.054014 1.047802 1.055792
P_10 1.082501 1.057039 0.973677 0.994378 1.021603 0.999205
P_10 0.937677 0.912175 0.931386 1.072561 0.968109 0.907840
P_10 1.014094 0.981358 1.012894 1.054946 1.079556 1.077417
P_10 0.965071 1.047029 0.884455 0.836247 0.759258 0.644619
P_10 0.685998 0.549357 0.479500 0.455774 0.401824 0.422820
P_10 0.398226 0.402494 0.512552 0.503403 0.555673 0.650994
P_10 0.820148 0.774072 0.990015 1.044961 1.067327 1.144575
P_10 1.299749 1.305924 1.268656 1.417046 1.269530 1.329173
P_10 1.167292 1.133172 1.180943 1.050349 1.052798 0.923920
P_10 0.908901 0.901078 0.918431 0.891345 0.916994 0.938052
P_10 0.990237 1.076709 1.108357 1.071384 1.232969 1.139471
P_10 1.077998 1.050449 0.875261 0.862621 0.805266 0.740803
P_10 0.704818 0.570556 0.525572 0.481471 0.418496 0.451421
P_10 0.427229 0.468450 0.486859 0.535474 0.623926 0.711277
P_10 0.733974 0.917013 0.951713 1.027839 1.031537 1.169649
P_10 1.088674 1.131163 1.242607 1.282939 1.178036 1.221682
P_10 1.030744 1.234990 1.110957 0.959356 0.939726 0.985045
P_10 0.921582 0.914091 1.002060 0.970289 1.015456 1.106943
P_10 1.111424 0.999223 1.162053 1.157091 1.120139 1.169600
P_10 1.135092 1.080742 0.974781 0.927569 0.865163 0.711517
P_10 0.626856 0.550908 0.528747 0.492911 0.418002 0.433015
P_10 0.444822 0.460353 0.554238 0.482942 0.611529 0.742035
P_10 0.815655 0.949210 0.949170 0.981464 1.061789 1.122036
P_10 1.176289 1.320215 1.238737 1.239243 1.175106 1.116938
P_10 1.131054 1.094150 0.945797 0.988521 1.074865 0.874865
P_10 0.992801 0.975043 0.913763 0.930999 1.005836 0.954681
P_10 1.180852 1.092606 1.162132 1.032318 1.122349 1.085934
P_10 1.114523 1.136222 1.068495 0.891755 0.766988 0.735393
P_10 0.659204 0.588438 0.585208 0.451060 0.478732 0.425727
P_10 0.406806 0.482963 0.512135 0.608588 0.661155 0.751672
P_10 0.813934 0.930402 1.039003 1.015957 1.158332 1.126848
P_10 1.081230 1.110428 1.292102 1.150200 1.121127 1.100734
P_10 1.147664 1.104678 0.988291 0.967299 0.919851 1.011565
P_10 1.007799 0.905312 1.007198 0.973836 1.002555 0.933835
P_10 1.091302 1.083976 1.140765 1.155893 1.075314 1.119789
P_10 1.166728 1.063248 0.950720 0.889709 0.785296 0.787354
P_10 0.741476 0.550906 0.574286 0.503748 0.457034 0.459649
P_10 0.453182 0.499467 0.572642 0.577061 0.682049 0.794654
P_10 0.779990 1.063293 1.142591 1.160144 1.224952 1.253093
P_10 1.450609 1.411339 1.305798 1.407308 1.296529 1.245651
P_10 1.265898 1.167903 1.112679 1.098485 1.030305 1.039903
P_10 0.996338 0.993885 1.061328 1.041799 1.062438 1.060968
P_10 1.149569 1.044905 1.175827 1.054273 1.023074 1.040120
P_10 1.119019 0.931546 0.924522 0.889746 0.791939 0.835479
P_10 0.677185 0.654213 0.599939 0.545756 0.487999 0.463814
P_10 0.503145 0.476196 0.478265 0.521329 0.575500 0.632940
P_10 0.707889 0.744554 0.841638 0.900217 0.966997 1.005338
P_10 1.065615 1.098368 1.176050 1.294962 1.066731 1.112232
P_10 1.186642 1.142811 0.998862 1.111090 1.020040 1.027593
P_10 1.067778 0.962342 1.123403 1.080399 1.104583 1.045938
P_10 1.045765 1.046810 1.094666 0.999762 0.999835 0.995728
P_10 1.000194 0.914298 0.856498 0.829167 0.700266 0.717332
P_10 0.688129 0.605006 0.555479 0.534867 0.494261 0.497833
P_10 0.494288 0.460934 0.464587 0.474562 0.488507 0.521199
P_10 0.590536 0.639875 0.629915 0.732591 0.790497 0.888491
P_10 0.920932 1.015923 1.091068 1.141409 1.158315 1.051400
P_10 1.175115 1.070879 1.050003 1.038641 1.052426 0.954769
P_10 0.951390 0.907651 0.876723 1.037520 0.960080 0.959883
P_10 0.961703 0.991108 1.064638 0.984024 1.130916 0.996919
P_10 0.977785 0.977094 0.936207 0.890278 0.793283 0.707231
P_10 0.596741 0.584451 0.447742 0.462798 0.446043 0.419286
P_10 0.418165 0.446708 0.464518 0.517060 0.585621 0.688848
P_10 0.763920 0.898264 0.954813 1.088193 1.229644 1.124456
P_10 1.292097 1.339647 1.324171 1.326711 1.313272 1.187945
P_10 1.201924 1.239597 1.148205 1.063038 0.964566 1.003281
P_10 0.879927 0.939326 0.877783 0.890330 0.970070 1.002113
P_10 0.976291 1.042538 1.135401 1.054799 1.053007 1.169238
P_10 1.192179 0.969334 0.972220 0.876799 0.919675 0.686797
P_10 0.672796 0.579472 0.528385 0.512245 0.483384 0.442522
P_10 0.439545 0.419762 0.494327 0.609367 0.617959 0.725099
P_10 0.834309 0.938016 0.897553 0.961729 1.137035 1.143424
P_10 1.161626 1.341203 1.349319 1.275582 1.309712 1.173900
P_10 1.178911 1.129192 1.060401 1.131284 0.888743 0.935225
P_10 0.877076 0.879507 0.926820 0.928339 1.007274 1.043011
P_10 1.133268 1.152701 1.131411 1.348564 1.195491 1.197907
P_10 1.058567 1.000681 0.947229 0.863594 0.797370 0.842718
P_10 0.689338 0.610485 0.560161 0.457246 0.464548 0.448906
P_10 0.422565 0.480560 0.514210 0.591421 0.624688 0.754890
P_10 0.876289 0.973292 1.014625 0.986778 1.164394 1.173562
P_10 1.139139 1.291357 1.175382 1.243208 1.307782 1.160012
P_10 1.224103 1.123499 1.115922 1.083968 0.974061 1.070499
P_10 1.022038 0.997936 1.043144 1.046356 1.055684 0.997812
P_10 1.115370 1.028116 1.050728 1.090740 1.109725 0.968774
P_10 1.118390 1.047362 1.000864 0.998820 0.849005 0.810860
P_10 0.718258 0.616267 0.530478 0.454419 0.462149 0.463535
P_10 0.469582 0.404061 0.536440 0.598535 0.613388 0.790175
P_10 0.804489 0.960236 0.959994 1.068020 1.158572 1.183389
P_10 1.272655 1.232106 1.293133 1.229123 1.157520 1.088571
P_10 1.159226 1.116842 1.044902 1.052940 1.013445 1.019052
P_10 1.015295 0.979662 1.070313 1.051782 1.035618 1.006505
P_10 1.105101 1.193905 1.053567 1.076056 1.123634 1.168493
P_10 1.064112 1.054586 1.020867 0.944965 0.914387 0.821947
P_10 0.753762 0.667089 0.570564 0.477420 0.434701 0.454037
P_10 0.427884 0.487458 0.550334 0.642073 0.673548 0.850074
P_10 0.900081 1.044746 1.155494 1.309357 1.384871 1.427191
P_10 1.369812 1.450154 1.451578 1.422971 1.386783 1.239567
P_10 1.232930 1.268931 1.079363 1.147618 1.055991 1.087957
P_10 1.013380 0.982251 0.999415 1.126187 0.993270 1.112950
P_10 1.053790 1.099360 1.194218 1.273681 1.088791 1.116315
P_10 1.024920 0.958063 1.016574 0.953764 0.932584 0.770635
P_10 0.706376 0.686647 0.577709 0.589235 0.555728 0.497232
P_10 0.460021 0.511063 0.490898 0.552193 0.538396 0.653047
P_10 0.719805 0.870595 0.804590 0.908529 1.020847 1.008461
P_10 1.121386 1.147853 1.128179 1.096662 1.141940 1.058280
P_10 1.118596 1.155291 0.966469 1.032453 1.061503 1.096172
P_10 1.063298 1.054338 1.102751 1.047035 1.051886 1.046416
P_10 1.112488 1.066935 1.086759 1.045278 1.026856 0.943398
P_10 0.979868 0.821950 0.856483 0.852193 0.762795 0.777699
P_10 0.664585 0.528577 0.536518 0.578568 0.532587 0.521123
P_10 0.475498 0.481811 0.466948 0.441324 0.487460 0.517997
P_10 0.574175 0.660415 0.654314 0.765928 0.762807 0.856098
P_10 0.999951 0.961124 1.042384 1.098441 1.022402 1.110953
P_10 1.134587 0.987660 1.106735 1.030188 0.997896 0.917207
P_10 0.963023 0.914871 0.943134 0.920551 0.978572 1.090517
P_10 0.956198 1.019010 0.987590 1.088604 0.998815 1.023832
P_10 0.919514 0.931353 0.894731 0.777946 0.749783 0.712869
P_10 0.658116 0.643476 0.523731 0.457634 0.428903 0.424584
P_10 0.421108 0.465843 0.491406 0.506819 0.609629 0.768719
P_10 0.806185 0.907790 0.947523 0.999490 1.145216 1.300786
P_10 1.366953 1.185903 1.285067 1.350893 1.340364 1.303476
P_10 1.250871 1.182103 1.162550 0.935529 1.071317 0.966336
P_10 0.871312 0.897702 0.936575 0.929619 0.828775 0.997018
P_10 1.012138 1.092694 1.120742 1.166999 1.132448 1.066293
P_10 1.134666 1.029871 1.025890 0.916560 0.793250 0.849567
P_10 0.714414 0.621799 0.526067 0.494383 0.438918 0.413999
P_10 0.487075 0.494219 0.511684 0.578231 0.674805 0.693548
P_10 0.815277 0.835616 0.978282 1.048868 1.101025 1.156143
P_10 1.163305 1.350337 1.126736 1.229780 1.312858 1.072547
P_10 1.171300 1.135285 1.111806 1.133560 1.011381 0.977400
P_10 0.933505 0.978816 0.973750 0.951938 1.032384 1.061154
P_10 1.114724 1.107130 1.169114 1.183609 1.142189 1.155769
P_10 1.045434 1.097674 1.107063 0.940058 0.855731 0.747493
P_10 0.710105 0.624962 0.523465 0.497329 0.493379 0.465215
P_10 0.465930 0.472281 0.527083 0.603173 0.620602 0.721885
P_10 0.852884 0.894440 1.020832 1.061088 1.189489 1.173484
P_10 1.194907 1.301655 1.281857 1.251774 1.206383 1.271125
P_10 1.168137 1.214209 1.232696 1.041379 1.035066 1.134706
P_10 1.014762 0.925416 1.090176 1.030985 0.995795 1.100536
P_10 1.155839 1.111896 1.179989 1.194641 1.091381 1.071918
P_10 1.154608 1.113301 1.085726 0.952000 0.973514 0.854148
P_10 0.679858 0.580196 0.570338 0.511690 0.482787 0.432568
P_10 0.468530 0.475573 0.501788 0.622828 0.626043 0.759887
P_10 0.863885 0.976815 0.990913 1.045055 1.140232 1.295833
P_10 1.287445 1.153961 1.194822 1.357749 1.177322 1.324753
P_10 1.044292 1.108488 1.229678 1.056249 0.854657 0.954529
P_10 1.022728 1.041284 1.015026 1.024829 0.994373 1.048628
P_10 1.139802 1.205870 1.171567 1.186314 1.116843 1.182982
P_10 1.152065 1.129449 1.084202 0.997042 0.924437 0.826357
P_10 0.745396 0.627947 0.535227 0.495974 0.536098 0.461745
P_10 0.459540 0.539047 0.540992 0.587067 0.726969 0.801639
P_10 1.023042 1.102470 1.076291 1.321827 1.363706 1.366748
P_10 1.510477 1.507836 1.467239 1.381478 1.317851 1.342789
P_10 1.318221 1.200735 1.117769 1.190253 1.148361 1.109078
P_10 1.012472 1.171779 1.156316 1.142484 1.024794 1.065814
P_10 1.068609 1.198069 1.198899 1.133384 1.163759 1.222689
P_10 1.086750 1.082370 1.051293 0.946368 0.908480 0.842238
P_10 0.738190 0.692636 0.682521 0.581241 0.540596 0.509049
P_10 0.502234 0.466676 0.528592 0.558375 0.613166 0.634677
P_10 0.726785 0.808669 0.854238 0.919424 0.963906 1.137650
P_10 1.211317 1.177422 1.321191 1.112892 1.206738 1.191842
P_10 1.165264 1.048823 1.198541 1.041214 1.051043 1.104964
P_10 1.097045 1.140320 0.992649 1.084524 1.024697 1.078336
P_10 1.056298 1.086678 1.163955 1.054031 1.064209 0.972301
P_10 0.949837 0.940723 0.925813 0.772792 0.719821 0.725806
P_10 0.669842 0.640936 0.590153 0.592580 0.518077 0.485205
P_10 0.479395 0.469121 0.509296 0.504266 0.515561 0.545685
P_10 0.591049 0.653735 0.712781 0.745682 0.909169 0.897958
P_10 0.914081 0.995141 1.076615 1.030205 1.136565 1.095092
P_10 1.140090 1.151439 1.023809 1.064232 1.016962 1.026313
P_10 1.013250 1.061075 0.922636 1.081403 0.934362 1.025586
P_10 0.994237 1.049511 1.046696 1.046627 1.057651 1.071767
P_10 1.026035 1.026623 0.955194 0.823211 0.716961 0.777047
P_10 0.626728 0.582072 0.516950 0.464950 0.470351 0.431200
P_10 0.421755 0.448425 0.535783 0.563093 0.687726 0.738991
P_10 0.796833 0.943781 1.098656 1.085763 1.210721 1.276951
P_10 1.290678 1.251521 1.398443 1.454223 1.331791 1.274634
P_10 1.300795 1.218066 1.151889 1.082734 0.999901 0.959374
P_10 0.925164 0.968253 0.883346 0.942054 0.862333 1.062169
P_10 1.072431 1.066778 1.211278 1.082660 1.113225 1.152032
P_10 1.137131 1.019984 0.983013 1.086649 0.859900 0.758608
P_10 0.654345 0.586562 0.548180 0.503514 0.493434 0.477732
P_10 0.440290 0.514082 0.527344 0.563467 0.637924 0.714462
P_10 0.860078 0.925341 0.996585 1.154084 1.172859 1.161499
P_10 1.158903 1.126849 1.283796 1.215190 1.321740 1.168536
P_10 1.266206 1.089223 1.141611 1.047111 1.027916 1.045987
P_10 0.997417 1.025641 0.991649 1.059532 1.047732 1.058801
P_10 1.115240 1.061244 1.169129 1.125576 1.178224 1.230932
P_10 1.145975 1.101347 1.048627 0.961111 0.875208 0.852335
P_10 0.701612 0.656972 0.583643 0.488946 0.482804 0.440070
P_10 0.470991 0.490538 0.487130 0.542011 0.711492 0.780988
P_10 0.802388 0.936671 1.028629 1.104131 1.132453 1.256601
P_10 1.165900 1.403393 1.370535 1.360615 1.275707 1.306916
P_10 1.312172 1.269834 1.196204 1.171803 1.137091 1.173546
P_10 1.073015 1.036897 1.043078 1.073777 1.048538 1.046245
P_10 1.083369 1.175932 1.061926 1.207378 1.243473 1.099021
P_10 1.180976 1.022904 0.986621 0.951413 0.875111 0.826383
P_10 0.755613 0.600338 0.542121 0.502645 0.455745 0.457900
P_10 0.478679 0.450494 0.553481 0.629409 0.640923 0.729723
P_10 0.913435 0.976810 1.013962 1.093230 1.212136 1.250560
P_10 1.285586 1.292280 1.368534 1.346573 1.147813 1.205254
P_10 1.129033 1.168633 1.057806 1.016786 1.030812 0.978464
P_10 1.041717 1.070394 1.030865 1.065762 1.027069 1.017358
P_10 1.070182 1.324350 1.121292 1.234660 1.230234 1.100160
P_10 1.056289 1.120030 1.066950 1.009665 0.924681 0.941469
P_10 0.776788 0.693381 0.626948 0.488953 0.488941 0.510731
P_10 0.460267 0.525067 0.577992 0.670538 0.758313 0.888511
P_10 0.999011 1.061604 1.216773 1.319832 1.484153 1.511295
P_10 1.511083 1.364499 1.418574 1.513959 1.477380 1.327434
P_10 1.203986 1.196467 1.344356 1.226171 1.084618 1.212069
P_10 1.118565 1.095835 1.188218 1.101530 1.196962 1.137217
P_10 1.252094 1.062718 1.211533 1.172148 1.184879 1.071474
P_10 1.074041 1.028190 1.024628 0.941691 0.899639 0.875019
P_10 0.711574 0.735598 0.607209 0.621157 0.506745 0.519447
P_10 0.505064 0.493287 0.514037 0.551635 0.570272 0.639904
P_10 0.777859 0.868411 0.913563 0.948107 1.151024 1.183983
P_10 1.199284 1.101276 1.206146 1.346836 1.141525 1.196995
P_10 1.347596 1.115795 1.094249 1.142824 1.276034 1.076772
P_10 1.019049 1.163793 1.125839 1.102805 1.060030 1.112411
P_10 1.241076 1.228595 1.151496 1.114224 1.035650 1.030252
P_10 0.970991 0.854560 0.872029 0.827779 0.889824 0.842017
P_10 0.732393 0.636219 0.633073 0.546909 0.526289 0.524325
P_10 0.465695 0.519272 0.518263 0.493477 0.533627 0.575154
P_10 0.618238 0.651080 0.687029 0.722725 0.880247 0.909960
P_10 1.057374 1.124837 1.146437 1.143445 1.100913 1.139005
P_10 1.163105 1.180498 1.122139 1.089830 1.025681 1.002892
P_10 0.959358 0.997805 1.029369 1.023398 1.020466 1.088295
P_10 1.160815 1.064302 1.038883 0.985393 1.122141 1.147087
P_10 1.028740 1.044045 1.090925 0.901593 0.823740 0.781974
P_10 0.659295 0.582281 0.548200 0.461210 0.461507 0.446668
P_10 0.437336 0.429356 0.497607 0.576501 0.658250 0.716366
P_10 0.767796 0.987219 1.029562 1.100669 1.139540 1.313391
P_10 1.364855 1.467149 1.416956 1.377022 1.359895 1.304414
P_10 1.276395 1.173002 1.137164 1.062027 1.034517 1.031024
P_10 0.994860 0.955821 0.954979 0.918672 0.923516 1.037052
P_10 1.023425 1.153473 1.229008 1.197690 1.143517 1.210593
P_10 1.095393 1.093669 1.052137 1.035070 0.898133 0.803240
P_10 0.768565 0.623538 0.604590 0.511910 0.524197 0.447436
P_10 0.485234 0.456706 0.525637 0.581600 0.635894 0.712750
P_10 0.900633 0.932573 1.015121 1.170590 1.230390 1.252150
P_10 1.310118 1.427151 1.257570 1.325757 1.342588 1.120095
P_10 1.272677 1.154549 1.092863 1.160337 1.035907 1.045209
P_10 1.017434 1.034591 0.967051 1.025045 1.092050 1.146272
P_10 1.101697 1.185885 1.203014 1.185732 1.086607 1.340207
P_10 1.116355 1.177813 1.064404 0.993991 0.915428 0.791951
P_10 0.741667 0.650127 0.564231 0.505719 0.419034 0.476216
P_10 0.502932 0.482624 0.533619 0.605160 0.669440 0.813372
P_10 0.902864 0.949702 0.992688 1.078597 1.241869 1.294002
P_10 1.222175 1.403974 1.366892 1.270085 1.318470 1.244484
P_10 1.296545 1.301982 1.227706 1.188100 1.168812 1.169154
P_10 1.138191 0.978790 1.095830 1.025551 1.147026 1.097797
P_10 1.133971 1.180566 1.148528 1.254331 1.185855 1.095457
P_10 1.091216 1.149169 1.115001 1.019438 0.890203 0.862441
P_10 0.777119 0.697063 0.553319 0.553448 0.428700 0.495061
P_10 0.470494 0.493356 0.577003 0.649427 0.678282 0.746752
P_10 0.947354 0.892060 1.056213 1.174607 1.237821 1.162184
P_10 1.201048 1.361783 1.304105 1.369347 1.358547 1.245130
P_10 1.281586 1.183047 1.165269 1.161785 1.074513 1.090620
P_10 1.044903 1.079430 1.080016 1.050554 1.091818 1.086533
P_10 1.150467 1.262376 1.215717 1.266964 1.172151 1.298568
P_10 1.165317 1.251132 1.023942 0.994403 0.908505 0.875091
P_10 0.691733 0.739449 0.561474 0.563678 0.527557 0.452511
P_10 0.527286 0.522680 0.541169 0.719436 0.739632 0.882918
P_10 0.901914 1.129294 1.165737 1.350166 1.441431 1.431653
P_10 1.432862 1.369865 1.555250 1.613028 1.435696 1.324430
P_10 1.377768 1.252254 1.130032 1.172237 1.176800 1.057725
P_10 1.126983 1.126470 1.141474 1.180576 1.018902 1.152916
P_10 1.085940 1.053636 1.265887 1.305978 1.122737 1.258185
P_10 0.991654 1.063430 1.098708 0.976855 0.891762 0.854941
P_10 0.751955 0.666907 0.657382 0.563375 0.597689 0.571649
P_10 0.491689 0.536706 0.553280 0.585513 0.600889 0.719300
P_10 0.782605 0.825735 0.970821 1.093530 0.983625 1.186176
P_10 1.238670 1.208605 1.248438 1.256661 1.200082 1.278062
P_10 1.231096 1.035245 1.187908 1.251953 1.194600 1.083088
P_10 1.208132 1.107730 1.084353 1.137228 1.133890 1.161143
P_10 1.152475 1.115859 1.184786 1.172771 1.128135 1.150438
P_10 0.926458 0.958498 0.914749 0.902429 0.756332 0.804312
P_10 0.709914 0.643670 0.620891 0.604642 0.576905 0.533166
P_10 0.478303 0.517301 0.471839 0.502888 0.542397 0.558311
P_10 0.665097 0.664547 0.722280 0.746815 0.883927 0.872339
P_10 1.099466 1.019732 1.140585 1.273366 1.141029 1.188619
P_10 1.307790 1.250469 1.100110 1.148287 1.035366 1.088846
P_10 0.951662 0.962639 0.968613 1.052987 1.062846 1.093158
P_10 1.097035 1.120080 1.221978 1.143986 1.088526 1.030825
P_10 1.034644 1.098904 0.985175 0.850584 0.882667 0.774316
P_10 0.718271 0.663963 0.589776 0.490726 0.447760 0.454980
P_10 0.444679 0.479230 0.511392 0.648884 0.671763 0.778863
P_10 0.892098 0.923047 1.010285 1.180111 1.202990 1.370214
P_10 1.378399 1.374519 1.533046 1.270428 1.423883 1.327813
P_10 1.246412 1.305719 1.119006 1.158086 1.008163 1.089953
P_10 0.983406 0.960856 0.931434 1.037716 0.957015 1.153611
P_10 1.119358 1.204396 1.038794 1.284676 1.183201 1.215910
P_10 1.195654 1.090243 1.006205 1.051780 0.900106 0.873919
P_10 0.700668 0.668394 0.631599 0.519649 0.455341 0.461804
P_10 0.456245 0.505313 0.491693 0.653183 0.676178 0.753847
P_10 0.864003 0.923428 1.022531 1.168690 1.133645 1.231910
P_10 1.275671 1.270059 1.301780 1.283564 1.341782 1.355306
P_10 1.240192 1.347807 1.186735 1.103604 0.948538 1.089086
P_10 1.100887 1.074157 0.951827 0.962539 1.044076 1.141184
P_10 1.174839 1.204568 1.222390 1.055094 1.338247 1.291555
P_10 1.285130 1.086113 1.095057 0.958200 0.938785 0.916137
P_10 0.724984 0.598716 0.523257 0.503745 0.488897 0.478302
P_10 0.459894 0.493055 0.574905 0.593497 0.666126 0.766856
P_10 0.870794 0.899433 1.094258 1.197337 1.279682 1.223527
P_10 1.239755 1.431218 1.365338 1.433780 1.306264 1.304463
P_10 1.316868 1.253690 1.197338 1.118838 1.100419 1.152141
P_10 1.081867 1.126344 1.122272 1.104713 1.007169 1.100950
P_10 1.166541 1.218994 1.270450 1.282607 1.302638 1.253417
P_10 1.270028 1.303584 1.071726 0.991660 1.006944 0.870241
P_10 0.754566 0.673284 0.574896 0.527209 0.486080 0.466062
P_10 0.484241 0.461672 0.566112 0.656059 0.751169 0.882969
P_10 0.890337 1.054692 1.077563 1.182609 1.252278 1.324957
P_10 1.216186 1.361501 1.184877 1.478604 1.247460 1.251619
P_10 1.223602 1.245652 1.230278 1.144729 1.134195 1.122940
P_10 1.159931 1.060475 1.235192 1.102630 1.172363 1.142858
P_10 1.178710 1.185738 1.147147 1.320971 1.233841 1.163007
P_10 1.113110 1.141883 1.075897 1.058130 0.949880 0.927630
P_10 0.740177 0.696191 0.598449 0.600336 0.528118 0.520521
P_10 0.518258 0.498693 0.567646 0.685600 0.766625 0.910924
P_10 0.996223 1.209020 1.161024 1.447568 1.372607 1.409584
P_10 1.746527 1.569316 1.586900 1.551094 1.472444 1.494430
P_10 1.281393 1.322196 1.419342 1.259003 1.177931 1.115173
P_10 1.099756 1.174671 1.180901 1.190017 1.065929 1.202130
P_10 1.218800 1.141390 1.230519 1.171360 1.148411 1.099590
P_10 1.128105 1.101544 1.096259 0.967368 0.891831 0.854375
P_10 0.745058 0.709155 0.693423 0.591093 0.598096 0.546510
P_10 0.552261 0.542530 0.571596 0.601349 0.622813 0.657962
P_10 0.672374 0.873203 0.877441 0.932247 1.136340 1.117691
P_10 1.123663 1.231365 1.164675 1.283052 1.318553 1.263532
P_10 1.243084 1.275753 1.157619 1.220947 1.170185 1.092898
P_10 1.102797 1.062072 1.089732 1.171650 1.217994 1.172222
P_10 1.110525 1.084317 1.227542 1.119247 1.035478 1.110333
P_10 1.012993 1.017151 0.894823 0.879727 0.865762 0.840331
P_10 0.701380 0.672207 0.656332 0.559198 0.492886 0.564728
P_10 0.545800 0.521543 0.520554 0.523745 0.573347 0.641044
P_10 0.585856 0.671697 0.749712 0.781669 0.845981 0.858785
P_10 0.995715 1.021120 1.187517 1.139060 1.177892 1.259483
P_10 1.215211 1.245237 1.127603 1.054020 1.093723 1.125280
P_10 1.157509 1.065352 1.049749 1.090781 1.020541 1.097475
P_10 1.031235 1.091741 1.218649 1.080719 1.164443 1.118446
P_10 1.185089 0.991953 1.076655 1.015734 0.805739 0.807515
P_10 0.736439 0.674083 0.583203 0.486222 0.447691 0.451102
P_10 0.474285 0.485766 0.512273 0.626677 0.708628 0.729778
P_10 0.855460 1.078835 1.037142 1.201167 1.213095 1.350288
P_10 1.374756 1.417805 1.442947 1.645644 1.487609 1.301385
P_10 1.401216 1.288600 1.192347 1.180394 1.097283 0.922087
P_10 1.003544 0.980136 1.022498 1.053509 1.116311 1.072756
P_10 1.100667 1.219348 1.211143 1.211162 1.267180 1.237293
P_10 1.223307 1.186152 1.152024 0.980539 1.018739 0.839372
P_10 0.744367 0.633039 0.573715 0.521445 0.506696 0.431918
P_10 0.513889 0.515260 0.540598 0.678114 0.749203 0.794191
P_10 0.840691 0.999582 1.114493 1.221892 1.252215 1.328733
P_10 1.345768 1.271355 1.268171 1.299068 1.356180 1.301946
P_10 1.274945 1.208773 1.162199 1.072426 1.110159 1.074226
P_10 1.117552 1.022651 1.120629 1.032567 1.155009 1.107698
P_10 1.265838 1.278593 1.243634 1.190979 1.277504 1.276157
P_10 1.241925 1.095269 1.134978 1.121433 1.026322 0.832133
P_10 0.820189 0.623653 0.567909 0.552791 0.526425 0.505388
P_10 0.533909 0.489089 0.564658 0.672114 0.713022 0.864706
P_10 0.923621 1.010435 1.087580 1.205738 1.155234 1.123022
P_10 1.363390 1.260929 1.317181 1.422803 1.338923 1.255433
P_10 1.386316 1.239960 1.175989 1.276043 1.222159 1.158882
P_10 1.097959 1.129730 1.122037 1.166728 1.241106 1.213258
P_10 1.261357 1.171532 1.247874 1.326082 1.379315 1.257495
P_10 1.185200 1.140452 1.227648 1.043491 1.005844 0.829540
P_10 0.774896 0.686856 0.668682 0.543037 0.502840 0.472852
P_10 0.492620 0.486006 0.602569 0.688218 0.711845 0.798721
P_10 0.958396 1.082550 1.133765 1.256695 1.235657 1.305511
P_10 1.240758 1.370404 1.370694 1.283885 1.389900 1.184398
P_10 1.274823 1.143079 1.117762 1.111348 1.204357 1.101907
P_10 1.117865 1.092026 0.993397 1.149955 1.238173 1.223396
P_10 1.272044 1.279617 1.340945 1.198041 1.291612 1.281953
P_10 1.236387 1.181066 1.143554 1.142336 0.995863 0.945555
P_10 0.780380 0.736847 0.587313 0.582332 0.516630 0.478840
P_10 0.543030 0.546420 0.632611 0.707215 0.837481 1.038645
P_10 0.988674 1.117420 1.372219 1.471879 1.542735 1.432266
P_10 1.606949 1.492214 1.515635 1.573147 1.479668 1.493026
P_10 1.449365 1.482422 1.265598 1.183991 1.139233 1.207793
P_10 1.108185 1.194205 1.147109 1.272530 1.186739 1.161785
P_10 1.249581 1.226382 1.249464 1.226329 1.227657 1.142185
P_10 1.045049 1.109175 1.090431 0.867588 0.939634 0.946322
P_10 0.875890 0.750395 0.718254 0.664605 0.599622 0.511425