; Filename: networks/Net1.inp
; WNTR: 0.1.6
; Created: 2019-04-09 13:25:17
[TITLE]
EPANET Example Network 1
A simple example of modeling chlorine decay. Both bulk and
wall reactions are included.

[JUNCTIONS]
;ID                      Elevation       Demand Pattern                 
 10                               710               0                            ;
 11                               710               0                            ;
 12                               700               0                            ;
 13                               695               0                            ;
 21                               700               0                            ;
 22                               695               0                            ;
 23                               690               0                            ;
 31                               700               0                            ;
 32                               710               0                            ;

[RESERVOIRS]
;ID                                   Head                  Pattern
 9                                800                            ;

[TANKS]
;ID                              Elevation           Init Level            Min Level            Max Level             Diameter           Min Volume Volume Curve        
 2                                850             120             100             150            50.5               0                        ;

[PIPES]
;ID                   Node1                Node2                              Length             Diameter            Roughness           Minor Loss               Status
 10                   10                   11                             10530              18             100               0                 Open   ;
 11                   11                   12                              5280              14             100               0                 Open   ;
 12                   12                   13                              5280              10             100               0                 Open   ;
 21                   21                   22                              5280              10             100               0                 Open   ;
 22                   22                   23                              5280              12             100               0                 Open   ;
 31                   31                   32                              5280               6             100               0                 Open   ;
 110                  2                    12                               200              18             100               0                 Open   ;
 111                  11                   21                              5280              10             100               0                 Open   ;
 112                  12                   22                              5280              12             100               0                 Open   ;
 113                  13                   23                              5280               8             100               0                 Open   ;
 121                  21                   31                              5280               8             100               0                 Open   ;
 122                  22                   32                              5280               6             100               0                 Open   ;

[PUMPS]
;ID                   Node1                Node2                Properties          
 9                    9                    10                   HEAD     1                      ;

[VALVES]
;ID                   Node1                Node2                            Diameter Type              Setting           Minor Loss

[TAGS]
;type      name       tag       

[DEMANDS]
;ID        Demand     Pattern   
10         0.0        P_10      
11         150.0      P_11      
12         150.0      P_12      
13         100.0      P_13      
21         150.0      P_21      
22         200.0      P_22      
23         150.0      P_23      
31         100.0      P_31      
32         100.0      P_32      

[STATUS]
;ID        Setting   
[PATTERNS]
;ID        Multipliers

1 1.000000 1.200000 1.400000 1.600000 1.400000 1.200000
1 1.000000 0.800000 0.600000 0.400000 0.600000 0.800000

P_10 0.616373 0.501548 0.397417 0.392110 0.353226 0.360136
P_10 0.359803 0.379380 0.429576 0.489579 0.531026 0.670395
P_10 0.751266 0.868646 0.981172 1.032299 1.182894 1.090464
P_10 1.341910 1.324878 1.371477 1.291163 1.337344 1.240868
P_10 1.254074 1.274766 1.068652 1.086892 0.978131 0.811926
P_10 0.885673 0.950402 0.910393 0.915424 0.913366 1.018307
P_10 1.009457 1.048742 1.010476 1.073080 1.163906 1.092995
P_10 1.011968 1.070603 0.969661 0.923915 0.817960 0.701117
P_10 0.683859 0.511194 0.478823 0.408517 0.406324 0.363296
P_10 0.386867 0.383480 0.475465 0.526078 0.564986 0.596980
P_10 0.756879 0.941669 0.968338 1.011317 1.018659 1.055974
P_10 1.153882 1.288965 1.205930 1.260432 1.287279 1.133018
P_10 1.152383 1.023012 1.043442 1.080663 1.032327 0.871694
P_10 0.894682 0.867472 0.905863 0.924875 0.953819 1.012554
P_10 0.996941 1.079234 1.061907 1.113548 1.089217 1.026841
P_10 1.018405 1.048000 0.964354 0.817517 0.788210 0.710752
P_10 0.613273 0.559153 0.489646 0.381560 0.396586 0.353339
P_10 0.390301 0.390882 0.491261 0.555946 0.599633 0.734102
P_10 0.820980 0.918352 0.916368 0.979304 1.110887 1.233288
P_10 1.161156 1.163758 1.323539 1.381107 1.366817 1.205958
P_10 1.259390 1.152207 1.056249 1.059869 1.033416 0.933835
P_10 0.993804 0.944894 0.955890 0.952403 0.985356 1.029567
P_10 0.960559 1.076291 1.091559 1.126611 1.004097 1.057382
P_10 0.977461 1.053956 0.936820 0.889797 0.811562 0.684017
P_10 0.606177 0.539854 0.486334 0.428853 0.414962 0.420518
P_10 0.361150 0.429688 0.501479 0.578963 0.578230 0.733948
P_10 0.785774 0.890106 0.888610 1.120831 1.177547 1.253107
P_10 1.150292 1.248565 1.280747 1.255856 1.185095 1.157675
P_10 1.092732 1.127789 0.984700 1.012464 0.983399 0.872773
P_10 0.949293 0.997641 0.977216 0.920618 1.062046 0.997675
P_10 1.042840 1.065704 1.181140 1.122890 1.199918 1.025600
P_10 1.092935 1.000051 0.965478 0.789772 0.849055 0.709784
P_10 0.684200 0.542877 0.505298 0.462348 0.404862 0.375964
P_10 0.422547 0.445766 0.501551 0.627892 0.747929 0.809497
P_10 0.873292 1.064337 1.132629 1.212343 1.305869 1.294733
P_10 1.471579 1.384808 1.418311 1.362148 1.354307 1.224626
P_10 1.347378 1.267989 1.164681 1.135591 1.023613 1.018388
P_10 0.974682 1.040102 0.981872 0.957592 1.082287 1.067335
P_10 1.098845 1.087921 1.124189 1.032880 1.070251 1.078705
P_10 0.976284 0.932372 0.880204 0.863992 0.807070 0.762829
P_10 0.723090 0.593358 0.579149 0.507455 0.453013 0.436670
P_10 0.417148 0.426994 0.473865 0.472030 0.531601 0.687052
P_10 0.706041 0.682714 0.836326 0.911597 0.966445 1.083954
P_10 1.057341 1.118669 1.165819 1.065101 1.172946 1.205673
P_10 1.206941 1.136937 1.015981 1.120400 1.069295 1.037372
P_10 1.077245 1.063933 1.077413 1.019810 0.947530 1.028484
P_10 1.005884 1.020415 1.098973 1.048226 0.953213 0.985302
P_10 0.954879 0.938371 0.809082 0.728363 0.664866 0.610202
P_10 0.588717 0.565805 0.479801 0.471773 0.467550 0.428045
P_10 0.438970 0.417474 0.432077 0.441970 0.453243 0.541556
P_10 0.556111 0.645176 0.640276 0.744557 0.717502 0.827569
P_10 0.940616 1.016363 1.043701 1.084454 1.104932 1.040676
P_10 1.055656 1.046926 1.103421 1.045583 0.983165 0.950991
P_10 0.898845 0.978962 0.854044 0.978066 0.988493 0.994385
P_10 0.951665 0.975146 0.974758 0.965877 1.084452 0.938986
P_10 1.020306 0.867943 0.808725 0.761443 0.742987 0.616268
P_10 0.575897 0.433818 0.443674 0.435208 0.388009 0.369994
P_10 0.346119 0.382864 0.447390 0.488832 0.612240 0.726783
P_10 0.728012 0.845417 1.028939 1.070227 1.158836 1.219801
P_10 1.219526 1.375249 1.309108 1.314602 1.221979 1.255570
P_10 1.120864 1.094349 1.097773 1.057319 0.984591 0.953200
P_10 0.912119 0.848360 0.866188 0.876031 0.920793 0.994129
P_10 1.017943 1.048432 1.094096 1.084197 1.087527 0.988908
P_10 1.048200 1.067956 0.952575 0.901738 0.765534 0.752612
P_10 0.635178 0.548200 0.487396 0.408112 0.396575 0.343799
P_10 0.377581 0.375631 0.462470 0.529195 0.601720 0.692070
P_10 0.782060 0.870068 0.946332 1.032759 1.029966 1.173026
P_10 1.212251 1.135776 1.335228 1.258773 1.285804 1.159216
P_10 1.133960 1.215157 1.050878 1.067855 0.868593 0.943838
P_10 0.927791 0.854848 0.887063 1.021613 0.972021 1.117458
P_10 1.163251 1.101750 1.100732 1.172501 1.101506 1.105860
P_10 1.019435 0.981777 0.930440 0.875812 0.775682 0.718988
P_10 0.647402 0.506219 0.440174 0.438002 0.388305 0.431110
P_10 0.412852 0.434276 0.479224 0.578203 0.615486 0.727479
P_10 0.844227 0.986519 0.896019 1.020564 1.118916 1.265027
P_10 1.187493 1.309399 1.287113 1.232610 1.140713 1.236553
P_10 1.217782 1.170509 1.082883 1.042571 0.936694 1.027572
P_10 1.037371 1.061744 0.937423 0.936988 1.011385 1.036409
P_10 0.981110 1.050076 1.084529 1.074291 1.038408 1.090990
P_10 1.072229 1.044712 0.928212 0.887464 0.816169 0.780736
P_10 0.585412 0.594087 0.470314 0.403393 0.388207 0.386454
P_10 0.394555 0.416974 0.480194 0.544350 0.606259 0.706199
P_10 0.867582 0.936057 1.046587 1.074594 1.176182 1.212924
P_10 1.343505 1.291505 1.347339 1.183358 1.342421 1.111552
P_10 1.101788 1.105290 0.978383 1.067069 1.066306 0.939730
P_10 1.038811 0.938251 0.941335 1.039305 1.016617 1.034073
P_10 1.142955 1.072182 1.152517 1.084052 1.112998 1.142586
P_10 1.056978 1.022040 0.865159 0.899858 0.879828 0.730213
P_10 0.681466 0.544158 0.504595 0.469365 0.461000 0.401277
P_10 0.418534 0.474557 0.487593 0.618484 0.697720 0.825583
P_10 0.806535 1.010785 1.075320 1.218353 1.295694 1.336029
P_10 1.379016 1.383774 1.429475 1.333613 1.337624 1.238698
P_10 1.258085 1.217032 1.083883 1.187256 1.068013 1.109940
P_10 1.095704 1.036391 1.038765 1.046129 1.124720 1.078305
P_10 1.013491 1.113549 1.212745 1.092641 0.999727 1.014736
P_10 1.043057 1.004106 0.869997 0.783580 0.853172 0.738610
P_10 0.686195 0.618235 0.554804 0.535130 0.467966 0.424081
P_10 0.410130 0.469143 0.440282 0.490819 0.538532 0.606300
P_10 0.687404 0.812716 0.855759 0.915074 0.971238 1.123558
P_10 1.068428 1.355040 1.192679 1.240636 1.207382 1.267617
P_10 1.231063 1.103941 1.054559 1.131484 1.002644 1.104154
P_10 1.060836 1.049271 1.108404 1.129227 0.970476 1.016755
P_10 0.963073 1.132088 1.123860 1.151712 1.038169 0.960071
P_10 0.790190 0.868502 0.855771 0.827289 0.765466 0.667150
P_10 0.615574 0.537971 0.526196 0.482180 0.449837 0.448881
P_10 0.428354 0.431705 0.456394 0.478170 0.469171 0.507212
P_10 0.573259 0.637530 0.753524 0.717894 0.765753 0.858554
P_10 0.949891 0.966268 1.011127 1.119944 1.190441 1.103499
P_10 1.111445 1.085007 1.135628 1.123279 0.979098 0.947557
P_10 1.041972 0.874510 0.962699 0.945346 0.952205 0.971931
P_10 0.955853 1.023762 1.037912 1.007683 1.046332 0.965830
P_10 1.012475 0.865918 0.805174 0.786898 0.799829 0.692796
P_10 0.560488 0.551302 0.429898 0.394197 0.357729 0.383696
P_10 0.386312 0.426499 0.426871 0.498807 0.626759 0.648388
P_10 0.753453 0.853190 1.030941 1.112042 1.128491 1.266199
P_10 1.394746 1.419829 1.333768 1.341266 1.287427 1.374534
P_10 1.323288 1.217569 1.110397 1.132532 0.971624 0.921311
P_10 0.924398 0.922184 0.944414 0.915906 0.992306 1.019161
P_10 0.916345 1.053901 1.139747 1.108879 1.172378 1.136310
P_10 1.087913 1.057419 0.999850 0.894280 0.847635 0.728685
P_10 0.666655 0.586435 0.456533 0.435984 0.408201 0.393168
P_10 0.375946 0.405301 0.460917 0.507348 0.574735 0.718500
P_10 0.724262 0.930557 0.867460 1.001739 1.067773 1.175419
P_10 1.292655 1.276498 1.130012 1.293216 1.245362 1.252735
P_10 1.220363 1.104501 1.083548 0.977519 1.120088 0.950719
P_10 0.947476 1.055766 0.973439 0.960096 0.957667 0.990915
P_10 1.044569 1.108432 1.088036 1.192005 1.156443 1.060268
P_10 1.058510 1.053723 0.967532 0.999251 0.848992 0.668426
P_10 0.624614 0.573980 0.510875 0.430057 0.414236 0.395250
P_10 0.406368 0.463562 0.498510 0.519117 0.600826 0.692818
P_10 0.748504 0.898939 1.081260 1.130200 1.317045 1.147133
P_10 1.104252 1.198288 1.318400 1.372394 1.338891 1.272768
P_10 1.161234 1.183478 1.167656 1.054294 1.046103 1.073762
P_10 0.998051 1.092190 0.992035 0.981190 1.047216 1.062420
P_10 1.012615 1.084343 1.039069 1.166643 1.085760 1.036251
P_10 1.112297 1.059807 1.059745 0.894227 0.752631 0.751225
P_10 0.655766 0.581632 0.527326 0.459850 0.405660 0.449290
P_10 0.384937 0.435900 0.479269 0.551305 0.597566 0.699237
P_10 0.823878 0.870537 1.023087 1.039885 1.172734 1.252755
P_10 1.343968 1.313953 1.278111 1.208089 1.228137 1.187253
P_10 1.207124 1.160834 1.074752 1.105370 0.990196 1.093186
P_10 1.028230 0.964932 0.961877 1.008290 0.971289 1.144369
P_10 1.120036 1.103682 1.045355 1.106093 1.101193 1.147017
P_10 1.005797 1.050937 0.928407 0.920890 0.811528 0.704862
P_10 0.656843 0.549135 0.527867 0.442993 0.429984 0.412178
P_10 0.383363 0.493586 0.483861 0.639557 0.653784 0.752803
P_10 0.891753 1.034559 1.180046 1.128218 1.386231 1.535640
P_10 1.408282 1.496934 1.436829 1.517704 1.262596 1.423451
P_10 1.326782 1.328373 1.220288 1.121960 1.100229 0.998168
P_10 1.116342 1.017485 1.065755 1.065082 1.170801 0.984996
P_10 1.168975 1.119636 1.177410 1.233836 1.048656 0.988937
P_10 1.134529 1.031385 0.954311 0.915381 0.868715 0.848591
P_10 0.699215 0.623439 0.585955 0.528642 0.435597 0.476146
P_10 0.460199 0.479296 0.432529 0.493742 0.574367 0.651307
P_10 0.728967 0.774476 0.787633 1.002380 1.055238 1.077779
P_10 1.083313 1.274096 1.233315 1.323763 1.176113 1.117037
P_10 1.255679 1.140713 1.159435 1.237910 1.089272 1.145593
P_10 1.152730 1.016950 1.122465 1.036069 1.103676 1.179274
P_10 1.128400 1.066085 1.008301 1.109985 0.942087 0.963528
P_10 0.979582 0.849121 0.834619 0.759990 0.709533 0.695113
P_10 0.623690 0.593525 0.522570 0.444712 0.466794 0.423402
P_10 0.395553 0.435306 0.423230 0.460713 0.513715 0.544526
P_10 0.559288 0.574133 0.668115 0.827045 0.788347 0.855418
P_10 1.009291 1.037835 1.051439 1.188876 1.126987 1.096679
P_10 1.199239 1.028328 1.000978 1.056273 0.971185 0.984853
P_10 0.916866 1.063612 0.969214 0.964145 0.937821 1.079903
P_10 0.924877 1.038931 1.152332 1.071951 1.007752 1.068289
P_10 1.002233 0.886532 0.939015 0.783147 0.774048 0.655615
P_10 0.645446 0.519733 0.469280 0.412106 0.434723 0.330736
P_10 0.389698 0.387199 0.435299 0.525986 0.594900 0.702563
P_10 0.719659 0.909382 1.042534 1.087206 1.254746 1.250288
P_10 1.381389 1.353973 1.440787 1.257551 1.336994 1.355765
P_10 1.267591 1.152527 1.247751 1.048545 0.973928 0.963184
P_10 0.848908 0.950904 0.964838 0.951955 0.983666 0.856079
P_10 1.078999 1.069632 1.110903 1.117398 1.172241 1.135640
P_10 1.193873 0.997095 0.949060 0.937996 0.832483 0.777502
P_10 0.667241 0.544123 0.511528 0.427585 0.372923 0.384209
P_10 0.391163 0.444434 0.432307 0.478381 0.644044 0.694118
P_10 0.796730 0.848432 0.921502 1.115814 1.141617 1.054639
P_10 1.319273 1.342390 1.412790 1.308238 1.376240 1.249294
P_10 1.113793 1.054477 1.150867 1.053266 1.046738 1.056932
P_10 0.934738 0.964719 0.991361 1.008041 1.039374 1.064259
P_10 1.112941 1.066500 1.191053 1.238347 1.117942 1.150835
P_10 1.040894 1.069314 1.063672 0.970348 0.838170 0.800268
P_10 0.641085 0.574312 0.478555 0.439675 0.408082 0.421153
P_10 0.401976 0.394238 0.519216 0.555353 0.673333 0.740243
P_10 0.825674 0.936133 1.047442 1.101656 1.220919 1.374508
P_10 1.305359 1.348688 1.407314 1.348844 1.258975 1.339653
P_10 1.255005 1.145382 1.102876 1.059474 1.175954 1.060826
P_10 0.967696 1.007494 1.015416 1.056460 1.045498 1.130782
P_10 1.140875 1.148007 1.161521 1.062112 1.229419 1.064419
P_10 1.045477 1.133458 0.942212 0.907294 0.830277 0.738324
P_10 0.614558 0.569536 0.455637 0.433098 0.400312 0.401024
P_10 0.402795 0.412571 0.492697 0.523258 0.654099 0.788766
P_10 0.850936 0.955527 1.076276 1.162214 1.311837 1.244532
P_10 1.238071 1.385314 1.265397 1.267981 1.295330 1.166130
P_10 1.181599 1.162867 1.063777 1.081240 0.949129 1.105012
P_10 1.047302 1.031307 0.983308 1.127758 1.037423 1.086195
P_10 1.120873 1.114853 1.084257 1.139399 1.119999 1.166956
P_10 1.129865 1.096361 1.103364 0.939367 0.851277 0.858487
P_10 0.748151 0.623851 0.586476 0.500247 0.472154 0.396488
P_10 0.431655 0.460717 0.532879 0.662439 0.715033 0.810062
P_10 0.995334 1.017718 1.198693 1.320776 1.406541 1.489074
P_10 1.499497 1.495667 1.461591 1.375381 1.467302 1.345523
P_10 1.382221 1.421681 1.217835 1.182033 1.101585 1.038882
P_10 1.088693 1.062898 1.065117 1.070993 1.188949 1.179415
P_10 1.164418 1.095931 1.075672 1.228002 1.061356 1.194322
P_10 1.019368 1.024367 1.008884 0.953812 0.769731 0.764367
P_10 0.643017 0.691941 0.557725 0.550438 0.509895 0.411960
P_10 0.436843 0.497873 0.477963 0.461373 0.547001 0.592210
P_10 0.712436 0.890942 0.772643 0.957635 1.026303 1.104297
P_10 1.053163 1.131761 1.281712 1.309675 1.306538 1.300701
P_10 1.132756 1.220311 1.161030 1.031446 1.163839 1.153864
P_10 1.168092 0.966744 1.091344 1.091196 1.061875 1.234769
P_10 1.168542 1.143550 0.977887 1.028641 1.040341 1.045173
P_10 0.911042 0.954659 0.859613 0.831685 0.762107 0.783368
P_10 0.615669 0.599571 0.557685 0.503811 0.472616 0.462104
P_10 0.469804 0.429284 0.431325 0.454956 0.462671 0.565956
P_10 0.583822 0.643773 0.688611 0.766808 0.935006 0.959820
P_10 1.009853 1.083666 1.131863 0.997802 1.155466 1.165848
P_10 1.168809 1.117880 1.042544 1.159789 0.993943 1.011351
P_10 1.121044 0.911554 1.017950 0.969938 1.006095 1.060994
P_10 1.003698 1.010103 1.034529 1.009749 1.091242 1.030052
P_10 1.048129 0.987635 0.988193 0.823007 0.770956 0.738113
P_10 0.618964 0.565121 0.494395 0.439452 0.420179 0.375519
P_10 0.394548 0.456757 0.461026 0.574353 0.649033 0.686406
P_10 0.866758 0.934159 1.055292 1.225506 1.265354 1.270114
P_10 1.400447 1.303537 1.454427 1.355305 1.401516 1.493574
P_10 1.129110 1.334944 1.308436 1.091205 1.075565 0.980964
P_10 0.947641 0.983893 0.960559 0.985081 0.949404 1.033212
P_10 1.084370 1.107091 1.133689 1.124821 1.225810 1.100115
P_10 1.157824 1.128215 0.915530 0.854493 0.852445 0.773396
P_10 0.655264 0.608325 0.484439 0.439286 0.410660 0.387604
P_10 0.374677 0.455626 0.500942 0.582821 0.641871 0.622031
P_10 0.823992 0.884257 1.067407 1.085459 1.207635 1.232968
P_10 1.257558 1.333287 1.236921 1.310135 1.385340 1.228927
P_10 1.177744 1.264873 1.158465 1.112691 1.018745 1.041955
P_10 0.983022 0.975668 1.008273 1.011526 0.959752 1.045693
P_10 1.017880 1.189242 1.103026 1.326079 1.169960 1.243475
P_10 1.091012 1.007310 1.105547 1.050670 0.894119 0.744124
P_10 0.706868 0.575008 0.486774 0.451964 0.420181 0.440673
P_10 0.396406 0.475264 0.470687 0.557161 0.683369 0.825849
P_10 0.825592 0.956227 1.000513 1.148407 1.256873 1.175879
P_10 1.357090 1.274348 1.334998 1.409524 1.239758 1.269935
P_10 1.332124 1.181512 1.216502 1.159766 1.073901 1.063685
P_10 1.096568 0.986273 1.057107 0.943745 1.013303 1.013917
P_10 1.097418 1.192217 1.187544 1.146872 1.121335 1.174563
P_10 1.059953 0.991174 1.017235 0.916346 0.845857 0.786136
P_10 0.684462 0.586175 0.585520 0.459204 0.404255 0.418301
P_10 0.392730 0.443447 0.538823 0.635123 0.672835 0.768211
P_10 0.892069 1.025403 1.132343 1.201851 1.225266 1.326042
P_10 1.373086 1.358739 1.321052 1.287147 1.305069 1.231231
P_10 1.232742 1.131959 0.988063 1.094834 1.089069 0.999834
P_10 1.022566 1.128947 1.055073 1.131587 1.147592 1.151489
P_10 1.144477 1.192304 1.196178 1.212547 1.147142 1.171217
P_10 1.146527 1.109810 1.030418 0.876951 0.989275 0.768588
P_10 0.692236 0.619069 0.567955 0.475443 0.432365 0.427264
P_10 0.454351 0.430168 0.540804 0.618858 0.742886 0.837142
P_10 0.952221 1.171259 1.161082 1.306130 1.435291 1.617475
P_10 1.542488 1.562875 1.397284 1.453513 1.615186 1.461944
P_10 1.247801 1.429068 1.339785 1.319207 1.123142 1.129061
P_10 1.137000 0.970408 1.105997 1.117533 1.036230 1.089170
P_10 1.133216 1.223884 1.135645 1.122972 1.100167 1.134375
P_10 1.048510 1.006729 1.091802 0.953472 0.830501 0.797823
P_10 0.775653 0.643265 0.587049 0.562145 0.537771 0.476397
P_10 0.432435 0.430719 0.485590 0.526895 0.526211 0.684022
P_10 0.684578 0.819859 0.865039 0.996205 1.017920 1.165205
P_10 1.164112 1.221207 1.203319 1.169370 1.265632 1.243704
P_10 1.325367 1.124392 1.184588 1.172594 1.174221 1.214074
P_10 1.214932 1.032219 0.979655 1.079437 1.125951 1.249851
P_10 1.137618 1.223163 1.158529 1.098081 1.016197 1.054749
P_10 0.948225 0.911071 0.765878 0.848211 0.808419 0.712920
P_10 0.695081 0.617155 0.575134 0.539317 0.490133 0.441870
P_10 0.482885 0.448084 0.468604 0.479335 0.509441 0.534952
P_10 0.612617 0.610282 0.683687 0.841014 0.825446 0.933443
P_10 1.010671 1.038007 1.124231 1.051487 1.202801 1.258602
P_10 1.205879 1.070176 1.154294 1.159786 1.123486 1.020100
P_10 1.056114 1.063002 0.943198 0.920196 0.999024 0.918704
P_10 1.048146 1.074069 1.044893 1.038328 1.026052 1.125704
P_10 1.043831 1.048681 0.925037 0.745780 0.753436 0.749188
P_10 0.673632 0.524515 0.462890 0.454274 0.399580 0.395370
P_10 0.382966 0.438873 0.450336 0.567696 0.623046 0.756933
P_10 0.811217 0.978112 0.995528 1.196370 1.244168 1.343347
P_10 1.336992 1.458469 1.395849 1.345396 1.388072 1.480703
P_10 1.321238 1.093932 1.243016 1.179850 1.006486 0.935243
P_10 0.982917 1.059044 1.036196 0.954812 1.040032 1.146988
P_10 1.100723 1.164961 1.181908 1.179931 1.090539 1.153801
P_10 1.008261 1.109726 1.056875 0.965344 0.874105 0.826985
P_10 0.719229 0.604567 0.507530 0.492873 0.442182 0.427845
P_10 0.402756 0.450801 0.466030 0.529344 0.619707 0.748714
P_10 0.866248 0.986815 1.053233 1.195674 1.223889 1.279007
P_10 1.367902 1.267088 1.401411 1.287586 1.345920 1.254807
P_10 1.367639 1.271932 1.135581 1.145091 1.111946 0.975491
P_10 0.987086 1.125722 1.011894 0.976162 1.039255 1.041431
P_10 1.203799 1.108443 1.237144 1.290940 1.151076 1.266272
P_10 1.116321 1.191238 1.122553 0.945624 0.924482 0.708254
P_10 0.693501 0.599294 0.505864 0.458750 0.416379 0.431949
P_10 0.433127 0.431306 0.526145 0.598567 0.625056 0.785441
P_10 0.878561 0.940171 1.114526 1.186974 1.209064 1.373602
P_10 1.399009 1.396910 1.385190 1.358341 1.347697 1.188387
P_10 1.393045 1.236771 1.399776 1.238692 1.117711 1.067629
P_10 1.096242 1.078767 1.220574 1.088766 1.075572 1.163943
P_10 1.112669 1.132443 1.193790 1.285262 1.236528 1.259468
P_10 1.119039 1.096441 1.131681 0.911736 0.915494 0.846612
P_10 0.723471 0.570749 0.589094 0.502633 0.454853 0.405098
P_10 0.401426 0.441258 0.532222 0.630930 0.689473 0.838068
P_10 0.905398 1.034464 0.961238 1.261458 1.241080 1.340385
P_10 1.189332 1.446508 1.491369 1.407507 1.361442 1.363657
P_10 1.282503 1.266770 1.118143 1.081752 1.178922 1.023920
P_10 1.197841 1.064818 1.023969 1.072160 1.211846 1.119844
P_10 1.180026 1.226896 1.087209 1.200992 1.186563 1.241123
P_10 1.085194 1.107509 1.032224 0.888091 0.845373 0.821215
P_10 0.685399 0.709738 0.567118 0.556459 0.471080 0.474640
P_10 0.431150 0.499929 0.601544 0.656941 0.678688 0.884869
P_10 0.974229 1.201224 1.134174 1.255805 1.331569 1.417938
P_10 1.544106 1.470075 1.662611 1.621293 1.431160 1.415268
P_10 1.435828 1.353952 1.210932 1.218752 1.195445 1.098534
P_10 1.144981 1.226686 1.189117 1.245475 1.114547 1.191892
P_10 1.162039 1.273422 1.257431 1.158894 1.171238 1.158759
P_10 1.133013 0.999628 0.998359 0.897185 0.902318 0.816727
P_10 0.736179 0.647221 0.563130 0.534506 0.576493 0.479171
P_10 0.444776 0.465544 0.462406 0.524801 0.609583 0.643104
P_10 0.785840 0.794401 0.838034 1.064749 0.945371 1.299062
P_10 1.178222 1.315312 1.275862 1.418168 1.371604 1.259155
P_10 1.275904 1.189665 1.208769 1.269763 1.187605 1.265600
P_10 1.057560 1.162876 1.050499 1.263146 1.115996 1.236706
P_10 1.136577 1.086084 1.261586 1.152129 1.084733 1.100074
P_10 0.999738 0.980752 0.892279 0.831798 0.774978 0.693555
P_10 0.649306 0.611404 0.515512 0.543387 0.501481 0.463096
P_10 0.474167 0.432053 0.504504 0.458042 0.515307 0.582948
P_10 0.610350 0.648601 0.759603 0.809745 0.856135 1.086000
P_10 1.092258 1.042604 1.185713 1.246228 1.236884 1.143312
P_10 1.182895 1.312031 1.204145 1.152815 1.119593 1.047310
P_10 1.094179 0.979855 1.030443 1.072481 1.061103 1.065659
P_10 1.106709 1.171464 1.157596 1.084743 1.218068 1.070420
P_10 1.087209 1.044148 0.956828 0.925354 0.678005 0.700500
P_10 0.601888 0.565807 0.543815 0.470257 0.418080 0.372940
P_10 0.407741 0.421143 0.525196 0.518425 0.611270 0.829334
P_10 0.781612 0.984221 1.023629 1.207864 1.216260 1.300142
P_10 1.406423 1.465116 1.603005 1.399600 1.543135 1.251170
P_10 1.401314 1.449481 1.166878 1.106514 1.133211 1.056731
P_10 1.148803 1.021771 0.989520 1.038082 0.990150 1.128244
P_10 1.143095 1.092544 1.199700 1.242914 1.245060 1.209525
P_10 1.114950 1.080429 1.046361 1.000233 0.886270 0.771193
P_10 0.694337 0.593257 0.534720 0.427384 0.450668 0.472691
P_10 0.424438 0.458869 0.493911 0.563991 0.634668 0.731192
P_10 0.904811 0.907982 1.121258 1.114723 1.329751 1.333523
P_10 1.320900 1.437665 1.405569 1.419256 1.228449 1.382224
P_10 1.251558 1.300029 1.151071 1.152725 0.970015 0.993917
P_10 1.005750 0.982452 0.953817 0.958499 1.028901 1.173464
P_10 1.181584 1.224922 1.354345 1.169290 1.284499 1.194386
P_10 1.203423 1.102617 1.099992 0.950713 0.927265 0.854567
P_10 0.671184 0.612773 0.510761 0.437613 0.415986 0.396443
P_10 0.447296 0.479608 0.538663 0.650499 0.688853 0.751414
P_10 0.870096 0.997780 1.134407 1.172438 1.295273 1.338895
P_10 1.355267 1.379262 1.471290 1.434640 1.297432 1.382886
P_10 1.295159 1.335713 1.284343 1.192265 1.050554 1.149896
P_10 1.126120 1.056754 1.161103 1.077272 1.141915 1.271840
P_10 1.146979 1.232434 1.263457 1.162729 1.312317 1.164765
P_10 1.202287 1.082920 1.166202 0.974941 0.978876 0.842542
P_10 0.722974 0.639435 0.611911 0.428697 0.439979 0.393639
P_10 0.421099 0.459080 0.504757 0.598764 0.693066 0.792635
P_10 0.856577 1.049747 1.095214 1.180339 1.262931 1.383849
P_10 1.439685 1.424655 1.377408 1.322667 1.283956 1.189249
P_10 1.272682 1.189938 1.142366 1.200713 1.066851 1.139915
P_10 1.095631 1.065615 1.017484 1.064931 1.221751 1.177646
P_10 1.147839 1.197430 1.281005 1.235453 1.311587 1.284180
P_10 1.320910 1.125240 1.046810 1.001593 0.972693 0.860150
P_10 0.713302 0.665388 0.572102 0.496692 0.478873 0.488562
P_10 0.454078 0.473399 0.519134 0.590427 0.751262 0.889314
P_10 1.018839 1.039870 1.261672 1.295014 1.412148 1.652257
P_10 1.535658 1.509104 1.501007 1.595696 1.414852 1.464116
P_10 1.434944 1.184338 1.349527 1.299696 1.120453 1.246205
P_10 1.044952 1.202667 1.147636 1.154332 1.162304 1.191397
P_10 1.220020 1.220987 1.205996 1.253252 1.185996 1.109161
P_10 1.082092 1.029281 0.998306 0.927396 0.902593 0.772056
P_10 0.817646 0.630824 0.705078 0.593089 0.517805 0.493289
P_10 0.485197 0.481331 0.503092 0.533852 0.589252 0.708964
P_10 0.788927 0.846686 0.933702 1.121287 1.113994 1.149318
P_10 1.262394 1.208527 1.398183 1.315317 1.363888 1.255306
P_10 1.476797 1.250932 1.237767 1.207987 1.244538 1.145652
P_10 1.104481 1.165916 1.185135 1.324892 1.186752 1.338704
P_10 1.276835 1.210446 1.144011 1.064291 1.123877 1.008893
P_10 0.964813 0.970820 0.908644 0.818311 0.768478 0.772496
P_10 0.686773 0.648297 0.565123 0.556521 0.513116 0.479083
P_10 0.474118 0.502562 0.461849 0.532896 0.524927 0.553655
P_10 0.649938 0.690821 0.754143 0.832316 0.864587 1.063249
P_10 1.050790 1.162694 1.236952 1.132564 1.375205 1.242673
P_10 1.428030 1.207615 1.212903 1.124852 1.104566 1.032892
P_10 1.111524 1.038201 1.018999 1.104569 1.069487 1.176280
P_10 1.196523 1.024098 1.118989 1.173845 1.219572 1.004224
P_10 1.124492 1.125412 0.945141 0.909921 0.810481 0.717644
P_10 0.654256 0.601292 0.528121 0.453839 0.440673 0.439992
P_10 0.393052 0.418195 0.515927 0.583168 0.622551 0.745110
P_10 0.840572 0.966871 1.071023 1.287676 1.227322 1.274223
P_10 1.375725 1.442182 1.416807 1.537583 1.378398 1.480489
P_10 1.398722 1.307684 1.192699 1.198479 1.232889 1.161071
P_10 1.075997 1.089771 0.947024 1.041227 1.031400 1.126699
P_10 1.135027 1.242588 1.136114 1.242747 1.164763 1.179728
P_10 1.248917 1.161793 1.079135 1.036233 0.898058 0.789650
P_10 0.696871 0.604786 0.529240 0.515844 0.440105 0.422265
P_10 0.456733 0.484269 0.485478 0.572002 0.644955 0.724564
P_10 0.887386 0.952505 1.072684 1.295157 1.166407 1.399941
P_10 1.289611 1.393668 1.340005 1.446839 1.339969 1.295847
P_10 1.346261 1.214769 1.207601 1.181388 1.140179 1.100668
P_10 1.104615 1.054587 1.089598 1.162350 1.072897 1.208554
P_10 1.154857 1.315708 1.266943 1.256603 1.296026 1.293022
P_10 1.215986 1.137572 1.049300 1.025745 0.887327 0.852807
P_10 0.657870 0.636472 0.553020 0.466612 0.411103 0.391144
P_10 0.427610 0.483121 0.514383 0.609320 0.677459 0.771112
P_10 0.961180 0.954900 1.092814 1.124661 1.427827 1.433418
P_10 1.393016 1.366284 1.506517 1.437620 1.326873 1.440593
P_10 1.420413 1.317318 1.225480 1.182277 1.253386 1.098947
P_10 1.138679 1.252305 1.066305 1.137102 1.119763 1.199433
P_10 1.278265 1.137797 1.224913 1.339876 1.370827 1.181586
P_10 1.107575 1.121371 1.085587 0.969626 1.006325 0.756506
P_10 0.726621 0.591853 0.522766 0.483213 0.427138 0.473830
P_10 0.440814 0.504023 0.533972 0.581316 0.751477 0.836661
P_10 0.848181 1.043352 1.035251 1.238815 1.282186 1.346522
P_10 1.458777 1.269765 1.403588 1.495846 1.380889 1.260455
P_10 1.266697 1.326110 1.272357 1.172485 1.186501 1.128052
P_10 1.092197 1.076495 1.125345 1.124747 1.103442 1.179608
P_10 1.113011 1.297655 1.222511 1.234175 1.302846 1.350035
P_10 1.374167 1.235084 1.066097 0.995463 0.858212 0.857494
P_10 0.715007 0.646898 0.556523 0.523020 0.508121 0.491486
P_10 0.471684 0.524287 0.577123 0.660789 0.780059 0.943447
P_10 0.967676 1.162302 1.335424 1.322940 1.515179 1.675919
P_10 1.694466 1.621011 1.604572 1.506022 1.588013 1.530562
P_10 1.280959 1.235540 1.178301 1.256420 1.220230 1.218023
P_10 1.195496 1.133056 1.113668 1.188583 1.202838 1.232053
P_10 1.157863 1.244353 1.279579 1.249188 1.162154 1.234167
P_10 1.079559 1.197662 1.077032 0.946723 0.940668 0.929917
P_10 0.789177 0.704789 0.603318 0.560930 0.499815 0.477334