; Filename: networks/Net1.inp
; WNTR: 0.1.6
; Created: 2019-04-09 13:27:05
[TITLE]
EPANET Example Network 1
A simple example of modeling chlorine decay. Both bulk and
wall reactions are included.

[JUNCTIONS]
;ID                      Elevation       Demand Pattern                 
 10                               710               0                            ;
 11                               710               0                            ;
 12                               700               0                            ;
 13                               695               0                            ;
 21                               700               0                            ;
 22                               695               0                            ;
 23                               690               0                            ;
 31                               700               0                            ;
 32                               710               0                            ;

[RESERVOIRS]
;ID                                   Head                  Pattern
 9                                800                            ;

[TANKS]
;ID                              Elevation           Init Level            Min Level            Max Level             Diameter           Min Volume Volume Curve        
 2                                850             120             100             150            50.5               0                        ;

[PIPES]
;ID                   Node1                Node2                              Length             Diameter            Roughness           Minor Loss               Status
 10                   10                   11                             10530              18             100               0                 Open   ;
 11                   11                   12                              5280              14             100               0                 Open   ;
 12                   12                   13                              5280              10             100               0                 Open   ;
 21                   21                   22                              5280              10             100               0                 Open   ;
 22                   22                   23                              5280              12             100               0                 Open   ;
 31                   31                   32                              5280               6             100               0                 Open   ;
 110                  2                    12                               200              18             100               0                 Open   ;
 111                  11                   21                              5280              10             100               0                 Open   ;
 112                  12                   22                              5280              12             100               0                 Open   ;
 113                  13                   23                              5280               8             100               0                 Open   ;
 121                  21                   31                              5280               8             100               0                 Open   ;
 122                  22                   32                              5280               6             100               0                 Open   ;

[PUMPS]
;ID                   Node1                Node2                Properties          
 9                    9                    10                   HEAD     1                      ;

[VALVES]
;ID                   Node1                Node2                            Diameter Type              Setting           Minor Loss

[TAGS]
;type      name       tag       

[DEMANDS]
;ID        Demand     Pattern   
10         0.0        P_10      
11         150.0      P_11      
12         150.0      P_12      
13         100.0      P_13      
21         150.0      P_21      
22         200.0      P_22      
23         150.0      P_23      
31         100.0      P_31      
32         100.0      P_32      

[STATUS]
;ID        Setting   
[PATTERNS]
;ID        Multipliers

1 1.000000 1.200000 1.400000 1.600000 1.400000 1.200000
1 1.000000 0.800000 0.600000 0.400000 0.600000 0.800000

P_10 0.613707 0.531141 0.546243 0.518073 0.450887 0.419905
P_10 0.419516 0.473124 0.535357 0.582884 0.688759 0.703127
P_10 0.809749 0.885380 1.006067 1.010516 1.247745 1.203771
P_10 1.199608 1.211949 1.295104 1.234151 1.191527 1.175147
P_10 1.175254 1.191780 1.161048 1.053293 0.923468 0.923390
P_10 0.882893 0.859327 0.846260 0.860176 0.926327 0.961536
P_10 0.885855 0.921032 1.060332 1.084089 1.017316 1.164269
P_10 1.070068 0.955411 0.893392 0.904825 0.741551 0.813765
P_10 0.686276 0.613473 0.533374 0.504143 0.466386 0.423508
P_10 0.413276 0.557321 0.480166 0.609700 0.589906 0.747240
P_10 0.806942 0.857530 0.853708 1.075715 1.003321 1.011123
P_10 1.052853 1.090773 1.229605 1.090765 1.076198 1.071196
P_10 1.163404 1.100438 0.975130 0.982075 0.898895 0.873321
P_10 0.941824 0.961217 0.893473 0.986938 0.976583 1.002655
P_10 0.957407 0.975053 1.023906 1.083590 1.146366 1.096507
P_10 0.975998 0.976857 0.914057 0.910769 0.770182 0.759082
P_10 0.702822 0.578406 0.524761 0.545552 0.487444 0.453232
P_10 0.478508 0.489548 0.587916 0.626819 0.635782 0.808514
P_10 0.804378 0.905252 1.038883 1.047156 1.144673 1.053386
P_10 1.172299 1.150302 1.143567 1.094818 1.247705 1.129560
P_10 1.214979 1.009978 1.067448 1.014245 1.004116 0.910257
P_10 0.946440 0.970740 0.942037 1.039259 0.919517 1.007008
P_10 1.120628 1.010840 0.986748 1.053219 1.031125 1.074717
P_10 0.984958 0.979978 0.928860 0.884785 0.875933 0.726030
P_10 0.753118 0.633186 0.522734 0.535643 0.477838 0.465010
P_10 0.506291 0.500321 0.498281 0.625405 0.655772 0.727324
P_10 0.815493 1.025679 0.973660 1.058293 1.096156 1.250775
P_10 1.256580 1.201746 1.159332 1.311607 1.146707 1.082985
P_10 1.148779 1.178094 1.061746 1.003281 0.918156 1.006759
P_10 0.973836 0.977154 0.896456 0.962965 1.026834 0.959540
P_10 1.080535 1.136681 1.032461 0.978306 1.036649 1.094115
P_10 1.040705 0.986055 1.020616 0.890258 0.797410 0.794127
P_10 0.670656 0.603908 0.606271 0.541927 0.471084 0.443339
P_10 0.447640 0.540644 0.565603 0.624464 0.738730 0.835609
P_10 0.901849 0.903909 1.058716 1.164462 1.242799 1.356299
P_10 1.399534 1.404043 1.439867 1.364919 1.380865 1.202927
P_10 1.192318 1.162516 1.176905 1.167816 1.039659 1.088738
P_10 0.951340 1.026241 0.948027 0.909912 1.021402 1.065902
P_10 1.019086 1.002752 1.032959 1.069087 1.094198 1.023843
P_10 0.930447 0.969903 0.941930 0.878011 0.909584 0.772275
P_10 0.678961 0.713492 0.640055 0.550949 0.514188 0.544780
P_10 0.540677 0.495201 0.519595 0.534789 0.573770 0.606794
P_10 0.747702 0.748976 0.815133 0.879214 1.073086 1.020398
P_10 1.092327 1.170980 1.089771 1.120269 1.288501 1.118195
P_10 1.088820 1.054402 1.000252 1.108879 0.990251 1.048879
P_10 1.069358 0.915429 1.055866 1.034946 1.138618 1.018459
P_10 1.069990 1.001134 0.908851 1.023693 0.945540 0.991660
P_10 0.841796 0.813451 0.825034 0.791990 0.725907 0.659854
P_10 0.677524 0.552203 0.611354 0.580732 0.579795 0.530437
P_10 0.538128 0.463279 0.461827 0.564548 0.579192 0.583067
P_10 0.609489 0.623786 0.699213 0.741644 0.825662 0.840577
P_10 0.975486 0.975604 0.979938 1.035893 1.024000 1.065916
P_10 1.018100 1.034672 0.980628 1.016772 1.020094 0.986158
P_10 0.922836 0.908270 0.891711 0.931681 0.889525 0.998115
P_10 0.884621 0.938620 1.030682 1.052714 1.000959 1.044770
P_10 1.046313 1.000393 0.940298 0.834792 0.716537 0.718620
P_10 0.642229 0.587507 0.500362 0.471850 0.459296 0.473995
P_10 0.457974 0.474415 0.535855 0.561738 0.605326 0.745734
P_10 0.808056 0.880287 1.043422 1.104189 1.110159 1.267015
P_10 1.315629 1.189156 1.310307 1.212701 1.200794 1.229305
P_10 1.194388 1.183884 1.143949 1.018245 0.939009 0.844997
P_10 0.881882 0.816155 0.901947 0.910261 0.907871 0.874368
P_10 0.953680 1.049292 1.058206 1.083108 1.112114 1.155194
P_10 1.000058 1.080917 0.968226 0.933584 0.881020 0.829307
P_10 0.654401 0.572130 0.478764 0.533137 0.490153 0.448922
P_10 0.473741 0.506306 0.544162 0.581623 0.590026 0.713514
P_10 0.807278 0.887611 1.032743 1.133365 1.201223 1.146631
P_10 1.166052 1.265643 1.232088 1.133627 1.195661 1.158877
P_10 1.072898 1.074398 0.966714 0.985715 0.978993 0.997237
P_10 0.923721 0.880429 0.919949 0.954018 0.953806 0.940975
P_10 1.044719 1.016169 1.173571 0.995347 1.204920 1.065601
P_10 1.156653 0.958386 1.083825 0.919779 0.859441 0.759986
P_10 0.655932 0.529363 0.540583 0.514953 0.467314 0.451389
P_10 0.486814 0.529622 0.540109 0.655585 0.729569 0.781127
P_10 0.829365 0.888653 0.985673 1.083736 1.119318 1.108242
P_10 1.065512 1.237150 1.174477 1.239422 1.345820 1.084340
P_10 1.186426 1.144844 1.149701 0.995153 0.992474 0.941149
P_10 1.006717 0.999796 0.979056 1.037213 1.012760 0.950226
P_10 0.999636 1.002179 1.004112 1.060379 1.193654 1.000863
P_10 1.003825 0.945798 1.014876 1.040525 0.712251 0.766570
P_10 0.665102 0.609239 0.587699 0.540200 0.469408 0.494175
P_10 0.468890 0.534858 0.550077 0.582817 0.690826 0.678165
P_10 0.832698 0.964201 0.961028 1.094045 1.201967 1.159082
P_10 1.138713 1.173622 1.145373 1.220638 1.098494 1.233750
P_10 1.152460 1.008622 1.005700 0.948747 1.051790 1.009260
P_10 0.890668 0.871001 1.061521 0.972079 0.979675 1.059938
P_10 0.949511 1.171595 1.043920 1.053844 1.121613 1.115548
P_10 1.072183 1.041031 0.993003 0.907584 0.775174 0.741871
P_10 0.733302 0.623290 0.566059 0.532793 0.512344 0.494214
P_10 0.481885 0.537942 0.515301 0.644261 0.654175 0.870885
P_10 0.964178 1.008023 1.133811 1.166242 1.405762 1.391081
P_10 1.331639 1.369051 1.399068 1.273421 1.272807 1.261796
P_10 1.169458 1.229855 1.142935 1.060721 1.064406 0.906325
P_10 0.933719 1.005891 1.017727 0.970531 1.017686 1.028977
P_10 1.064690 1.081207 1.182130 1.043126 1.076445 1.057020
P_10 0.868469 0.935066 0.934843 0.850027 0.830609 0.823128
P_10 0.722316 0.665836 0.599385 0.646950 0.568508 0.505825
P_10 0.545886 0.505571 0.500927 0.527186 0.576324 0.689338
P_10 0.712947 0.806738 0.840090 0.891070 0.900771 1.022722
P_10 1.113955 1.260806 1.181267 1.235769 1.182837 1.187841
P_10 1.182637 1.162039 1.117252 1.027511 0.955721 0.965038
P_10 1.014204 0.973564 0.938084 0.894704 1.096837 1.084848
P_10 0.941712 1.098562 1.092517 1.036790 0.913537 0.917536
P_10 0.949436 0.887194 0.858491 0.759578 0.783640 0.742618
P_10 0.706243 0.691852 0.581941 0.580201 0.552890 0.496686
P_10 0.459695 0.511430 0.535491 0.533766 0.516035 0.558115
P_10 0.608643 0.738702 0.665438 0.769631 0.799945 0.903146
P_10 0.974794 0.981226 1.046946 1.078589 1.071238 1.037790
P_10 1.003741 0.989661 1.142844 0.948855 0.899002 0.984138
P_10 0.935422 0.891109 0.997917 0.879168 0.906075 0.984012
P_10 0.979240 0.914605 0.988476 1.071707 0.955045 0.978186
P_10 0.911449 1.022028 0.908456 0.861818 0.812115 0.746620
P_10 0.662802 0.628463 0.551172 0.450120 0.500795 0.438975
P_10 0.464137 0.485079 0.516285 0.568272 0.669524 0.764859
P_10 0.798003 0.895988 0.944095 1.115680 1.091046 1.144766
P_10 1.060913 1.288937 1.334471 1.367042 1.343681 1.237107
P_10 1.200698 1.181799 1.166154 0.944142 1.124266 0.847700
P_10 0.941742 0.829691 0.876931 0.932881 0.985549 0.971754
P_10 0.928269 1.044249 1.068933 1.157889 1.038051 1.029419
P_10 1.099678 1.042340 0.992102 0.908479 0.848042 0.720473
P_10 0.688106 0.639823 0.532034 0.547643 0.460800 0.447770
P_10 0.459859 0.482674 0.499164 0.597561 0.669254 0.680177
P_10 0.830950 0.865040 0.968617 1.024042 1.079643 1.211646
P_10 1.125323 1.265955 1.202534 1.215802 1.150155 1.164822
P_10 1.084008 1.175541 1.012865 0.973853 1.037766 0.851409
P_10 0.892457 0.966079 0.987574 0.889296 0.908740 1.007173
P_10 1.065119 0.939102 1.107590 1.055947 1.043091 1.125434
P_10 1.128049 1.052544 0.952060 0.923509 0.838084 0.788421
P_10 0.662979 0.633338 0.554985 0.531642 0.408379 0.483309
P_10 0.487400 0.463198 0.598412 0.583781 0.667616 0.759273
P_10 0.834452 0.946699 1.010443 0.991968 1.189069 1.222343
P_10 1.190610 1.290098 1.307879 1.133228 1.182577 1.319092
P_10 1.211473 1.059623 1.154170 1.040141 0.977038 1.040763
P_10 0.959897 1.039016 0.952077 0.919743 0.913911 1.001682
P_10 0.978884 1.001386 0.989195 1.102949 1.088219 1.070794
P_10 1.023309 0.978323 1.032045 0.983674 0.838911 0.787395
P_10 0.768241 0.660814 0.554035 0.551454 0.477239 0.456548
P_10 0.476502 0.522758 0.544490 0.549417 0.597921 0.745612
P_10 0.813390 0.951350 1.039562 1.114778 1.047229 1.093761
P_10 1.247519 1.186494 1.145875 1.333794 1.109547 1.158948
P_10 1.078287 1.133175 1.030349 0.986648 1.038550 0.895300
P_10 0.986613 0.947106 0.967080 1.030894 1.042930 0.937823
P_10 1.081385 0.979555 1.069700 1.124284 1.128526 1.053854
P_10 1.117108 1.089432 0.944191 0.916967 0.835024 0.822502
P_10 0.722969 0.700989 0.569726 0.558268 0.512114 0.518896
P_10 0.531968 0.520172 0.542371 0.658754 0.694750 0.738116
P_10 0.932252 1.121543 1.191228 1.212557 1.324625 1.430081
P_10 1.326327 1.409223 1.452028 1.224555 1.289983 1.132059
P_10 1.172141 1.193887 1.206840 1.119698 1.046562 0.921479
P_10 1.112660 1.020513 1.077857 1.013183 1.127611 0.989674
P_10 1.211246 1.022551 1.053988 1.037029 0.998125 1.135377
P_10 1.010710 0.998423 1.034838 0.925258 0.834769 0.835823
P_10 0.738930 0.689933 0.651805 0.637287 0.546230 0.508646
P_10 0.525910 0.523118 0.566989 0.622262 0.613240 0.634825
P_10 0.722861 0.798432 0.956611 0.925709 1.032413 0.999324
P_10 1.247244 1.134638 1.140702 1.134330 1.210335 1.101151
P_10 1.107859 1.210462 1.128978 1.158503 1.118912 1.056577
P_10 1.020390 0.994901 1.123919 0.980010 1.020536 1.073961
P_10 0.970843 1.046626 1.043000 1.063102 1.019204 0.950891
P_10 0.926097 0.907118 0.826362 0.715589 0.790371 0.707869
P_10 0.669436 0.649160 0.594029 0.631309 0.567565 0.569266
P_10 0.493571 0.583047 0.504865 0.567883 0.559445 0.634029
P_10 0.609109 0.648028 0.772387 0.757460 0.846672 0.899789
P_10 0.990407 1.057569 1.098700 1.026499 1.088561 1.127268
P_10 1.110794 1.036910 0.978518 0.990465 0.996853 0.991470
P_10 0.993461 0.897786 0.906692 0.939624 1.006921 1.007121
P_10 1.012826 1.007774 1.071996 1.107655 1.020309 1.041194
P_10 1.024971 0.972220 0.933241 0.792709 0.795485 0.714462
P_10 0.694549 0.591551 0.545614 0.491840 0.503142 0.455794
P_10 0.481028 0.447662 0.609632 0.576916 0.661797 0.744745
P_10 0.849524 1.001755 1.106091 1.131917 1.209270 1.245572
P_10 1.369749 1.358121 1.386284 1.331929 1.364854 1.184484
P_10 1.181641 1.193660 1.199404 0.989237 1.000609 0.914618
P_10 0.973081 0.927294 0.947436 0.907731 1.002178 0.962040
P_10 1.028264 1.068643 1.041721 1.084909 1.102114 1.081838
P_10 1.065952 1.070340 1.012498 0.881374 0.780829 0.761706
P_10 0.728588 0.588360 0.650373 0.556723 0.438468 0.480350
P_10 0.448755 0.502076 0.537896 0.621459 0.740668 0.742124
P_10 0.818385 0.879161 0.956928 1.054737 1.067699 1.200919
P_10 1.169381 1.194109 1.309441 1.278301 1.331307 1.212274
P_10 1.225229 1.043999 1.090249 1.003231 0.988443 0.927237
P_10 0.970225 0.860351 0.991278 0.892861 1.029928 1.005981
P_10 1.052535 1.121676 1.127094 1.075502 1.064624 1.069840
P_10 1.044860 1.129239 0.973465 0.891360 0.834520 0.791466
P_10 0.730564 0.621982 0.537025 0.469280 0.499827 0.540590
P_10 0.494809 0.510124 0.534006 0.591973 0.639499 0.745095
P_10 0.899666 0.986298 1.057571 1.114606 1.161343 1.248776
P_10 1.283352 1.181405 1.233957 1.234050 1.200777 1.216907
P_10 1.227392 1.093814 1.146066 1.060075 1.069340 1.094165
P_10 0.952273 1.095490 1.026604 1.088591 1.001473 1.005989
P_10 0.984315 1.098593 1.035398 1.056063 1.126191 1.014086
P_10 1.083393 1.074524 1.046037 0.968786 0.849046 0.780710
P_10 0.693770 0.679580 0.557769 0.550220 0.476733 0.492828
P_10 0.517931 0.487351 0.560260 0.616048 0.651877 0.777200
P_10 0.866628 1.052835 1.018977 1.225617 1.130996 1.312873
P_10 1.266860 1.227042 1.308518 1.284540 1.245952 1.106333
P_10 1.226833 1.129044 1.158679 0.993726 1.049286 1.009027
P_10 0.970602 0.989649 0.983308 0.991516 1.003295 0.889544
P_10 1.227925 1.154768 1.022995 1.138148 1.026927 1.100467
P_10 1.106578 1.100910 1.015746 1.012844 0.883552 0.786937
P_10 0.682125 0.670155 0.546427 0.562219 0.521833 0.470510
P_10 0.503016 0.548845 0.586152 0.658017 0.763173 0.919892
P_10 0.931769 1.124333 1.210523 1.258020 1.282898 1.423939
P_10 1.459676 1.435741 1.354536 1.407175 1.252509 1.281574
P_10 1.224351 1.277716 1.159396 1.098682 1.142391 1.085409
P_10 1.087830 1.041524 1.111796 0.996041 0.991665 1.223565
P_10 1.079100 1.133899 1.121787 1.121962 1.075688 1.057914
P_10 1.029380 1.074475 0.981669 0.898380 0.793522 0.913229
P_10 0.755993 0.714511 0.685933 0.607166 0.573494 0.574316
P_10 0.555480 0.564630 0.513559 0.580405 0.642610 0.714196
P_10 0.709881 0.826257 0.935093 1.020959 0.973494 1.210693
P_10 1.150859 1.191087 1.251627 1.124481 1.322974 1.161066
P_10 1.176404 1.244742 1.222839 1.086139 1.081165 1.070641
P_10 0.972844 0.994980 1.020448 1.062879 1.061222 1.108052
P_10 1.156490 1.075152 1.150301 1.061288 1.007029 1.018822
P_10 0.984197 0.933928 0.803005 0.800793 0.729418 0.632657
P_10 0.731408 0.610978 0.627903 0.597354 0.574583 0.554065
P_10 0.579252 0.584404 0.554424 0.547279 0.539253 0.569992
P_10 0.661049 0.677464 0.732125 0.821721 0.839300 1.009865
P_10 1.011897 1.104939 1.224515 1.099032 1.195276 1.069032
P_10 1.099680 1.071625 1.140780 1.009931 1.042311 0.964524
P_10 0.878717 1.061857 1.027049 1.020023 1.066185 0.905500
P_10 0.894643 0.925857 0.997929 1.022192 1.152999 1.054084
P_10 1.076366 0.971475 0.867630 0.895978 0.822832 0.814806
P_10 0.626898 0.550807 0.516970 0.527765 0.474484 0.542866
P_10 0.443320 0.494595 0.547812 0.609497 0.670613 0.726155
P_10 0.822269 0.833316 1.090756 1.122227 1.211516 1.258434
P_10 1.165496 1.441706 1.344255 1.266147 1.237542 1.227964
P_10 1.218390 1.157440 1.084277 1.038040 1.049664 1.019261
P_10 0.926839 0.916662 0.932549 1.004329 1.005956 0.929882
P_10 0.935097 1.116193 1.074160 1.025545 1.205484 1.168522
P_10 1.171695 1.044398 1.111481 0.914639 0.969110 0.759412
P_10 0.722036 0.663852 0.573457 0.499802 0.540725 0.506948
P_10 0.482225 0.506330 0.519952 0.615025 0.628041 0.673986
P_10 0.828783 0.908721 1.124363 1.106377 1.141626 1.311628
P_10 1.177584 1.267175 1.325008 1.329670 1.213608 1.200222
P_10 1.287219 1.135914 1.093668 1.052972 1.025147 1.005209
P_10 0.991607 0.944129 1.003802 1.024528 0.904566 1.009276
P_10 1.057397 1.141692 1.141670 1.168144 1.163530 1.211429
P_10 1.109290 1.012666 1.007514 0.923813 0.896413 0.815358
P_10 0.677463 0.707427 0.576485 0.523989 0.517396 0.508626
P_10 0.519760 0.603513 0.533936 0.624265 0.684930 0.763193
P_10 0.928135 1.032191 1.061679 1.169300 1.235044 1.229432
P_10 1.234401 1.395374 1.366957 1.351021 1.222199 1.317560
P_10 1.301448 1.177721 1.125927 1.087803 1.105479 1.005577
P_10 1.052938 1.039447 1.095231 0.913896 1.060925 1.081895
P_10 1.030220 1.132653 1.072818 1.193044 1.101881 1.093299
P_10 1.001316 1.017513 1.015730 0.962601 0.908980 0.725374
P_10 0.649113 0.694196 0.578153 0.511566 0.511035 0.481377
P_10 0.530598 0.535676 0.532193 0.640429 0.734610 0.784945
P_10 0.840070 1.021529 1.070722 1.102741 1.189263 1.292899
P_10 1.225263 1.346692 1.216444 1.338359 1.197777 1.182228
P_10 1.227850 1.121360 1.132418 1.003185 1.071792 1.066061
P_10 1.122912 0.981602 1.018225 0.952614 1.012855 1.053153
P_10 1.024992 1.057651 1.151169 1.056984 1.119844 1.119283
P_10 1.126778 1.190857 1.047574 0.960780 0.857459 0.789498
P_10 0.769312 0.741940 0.640908 0.537523 0.521570 0.573729
P_10 0.504574 0.545711 0.632488 0.707603 0.772142 0.893678
P_10 0.964014 1.067165 1.271466 1.301679 1.331768 1.538377
P_10 1.383169 1.413351 1.456479 1.462199 1.378937 1.430366
P_10 1.299734 1.206052 1.087391 1.217065 1.061542 1.059022
P_10 1.001992 1.031788 1.152377 1.110929 1.046768 1.256660
P_10 1.211332 1.168346 1.132725 1.091495 1.170729 1.091128
P_10 1.048360 1.008858 0.993577 0.951544 0.871735 0.791547
P_10 0.726089 0.747812 0.692639 0.598273 0.546938 0.551519
P_10 0.543878 0.533208 0.581997 0.591403 0.649447 0.644729
P_10 0.735391 0.857225 0.981795 0.963040 1.136748 1.173558
P_10 1.174828 1.324680 1.255675 1.264334 1.185393 1.251115
P_10 1.228778 1.227224 1.117784 1.191052 1.163829 1.117457
P_10 1.146411 1.109695 1.080106 1.172949 1.129277 1.147438
P_10 1.134160 0.974264 1.010248 1.057224 1.114361 0.942166
P_10 0.993571 0.995262 0.893421 0.826182 0.771585 0.766001
P_10 0.734441 0.652615 0.626961 0.577293 0.549788 0.589712
P_10 0.591120 0.478923 0.539820 0.622416 0.569697 0.609577
P_10 0.640497 0.751938 0.863121 0.875868 0.932129 0.971335
P_10 0.999834 0.983568 1.057841 1.125630 1.049819 1.171233
P_10 1.068302 1.130498 1.100214 1.086156 1.040959 0.960838
P_10 0.972805 0.978884 1.043192 0.962055 1.066854 1.021163
P_10 1.116203 1.129456 1.073535 1.053658 1.027426 1.038172
P_10 0.973677 1.074393 1.022823 0.951708 0.774920 0.736328
P_10 0.702926 0.663178 0.574363 0.529905 0.518527 0.500497
P_10 0.496439 0.511995 0.521341 0.585767 0.674515 0.845734
P_10 0.892701 0.895189 1.037986 1.149448 1.268268 1.314935
P_10 1.252258 1.355701 1.277109 1.378728 1.317598 1.369108
P_10 1.218785 1.276469 1.158575 1.062056 1.069964 1.005027
P_10 0.946348 0.989689 0.859263 0.969220 1.048010 1.030806
P_10 0.983521 1.077299 1.176200 1.238300 1.177121 1.167575
P_10 1.181879 1.134134 1.093465 1.024284 0.939369 0.822953
P_10 0.744804 0.621557 0.675127 0.579948 0.475136 0.526814
P_10 0.492904 0.550117 0.565433 0.623896 0.667717 0.722696
P_10 0.826735 0.909937 0.954835 1.113147 1.235823 1.179342
P_10 1.373409 1.251041 1.328553 1.335734 1.368303 1.241751
P_10 1.261031 1.061182 1.044101 1.068521 0.998230 0.977984
P_10 1.005690 1.019274 0.982521 1.001287 1.030106 1.010658
P_10 1.053412 1.151680 1.167073 1.210555 1.190509 1.171754
P_10 1.222182 1.139974 1.105193 1.019014 0.896051 0.769861
P_10 0.751554 0.628887 0.623299 0.549236 0.484863 0.496223
P_10 0.512511 0.525946 0.636555 0.666198 0.686483 0.838440
P_10 0.927858 0.958896 1.095968 1.090005 1.213810 1.250597
P_10 1.120134 1.275475 1.214599 1.407134 1.267471 1.300020
P_10 1.294500 1.259697 1.195763 1.130560 1.048604 1.125169
P_10 1.178003 1.017239 1.030574 1.040970 1.103794 1.075551
P_10 1.174287 1.185975 1.136951 1.187768 1.191624 1.198072
P_10 1.044035 1.111155 0.982501 1.043411 0.999507 0.761542
P_10 0.738796 0.690607 0.576400 0.541382 0.506051 0.522520
P_10 0.510024 0.517972 0.652213 0.604069 0.700381 0.774631
P_10 0.892040 1.067586 1.089858 1.152448 1.213691 1.179462
P_10 1.244739 1.354139 1.313954 1.237898 1.331472 1.367025
P_10 1.175685 1.175841 1.066489 1.139140 1.077133 1.095225
P_10 1.039860 1.071778 1.139030 1.087430 1.004882 1.067791
P_10 0.979576 1.190423 1.184199 1.205449 1.234117 1.122416
P_10 1.096973 1.080709 1.002521 1.033777 0.944894 0.793857
P_10 0.697151 0.636592 0.623718 0.588831 0.565256 0.530974
P_10 0.522842 0.604859 0.608984 0.660778 0.759403 0.896060
P_10 0.964258 1.100463 1.100768 1.249993 1.389751 1.507141
P_10 1.586775 1.480880 1.518062 1.563098 1.354888 1.308132
P_10 1.290084 1.377487 1.204455 1.186099 1.142192 1.166369
P_10 1.131874 1.090645 1.104676 1.121315 1.106284 1.274082
P_10 1.120271 1.207536 1.119214 1.194690 1.099193 1.244975
P_10 1.124621 1.048537 1.012003 0.955443 0.897743 0.798893
P_10 0.759313 0.743256 0.702867 0.587021 0.625370 0.602660
P_10 0.559245 0.532323 0.564320 0.588718 0.667259 0.680698
P_10 0.785863 0.872310 0.917844 0.980032 1.060148 1.167791
P_10 1.227752 1.207220 1.288187 1.272460 1.305807 1.244586
P_10 1.206776 1.210329 1.219299 1.132213 1.133441 1.109021
P_10 1.056918 1.218607 1.104561 1.153708 1.069980 1.106179
P_10 1.118567 1.158423 1.078090 1.027164 1.043226 1.027131
P_10 1.017876 0.997717 0.822405 0.892949 0.783044 0.745469
P_10 0.712049 0.639863 0.643981 0.614114 0.530687 0.525873
P_10 0.523197 0.568129 0.538415 0.552892 0.670243 0.647151
P_10 0.679776 0.649354 0.792545 0.833491 0.994111 1.023238
P_10 1.049337 1.167447 1.085947 1.228379 1.178350 1.136280
P_10 1.125311 1.068412 1.171127 1.053486 1.112542 0.963958
P_10 1.054858 1.048479 1.000793 1.005090 0.923556 1.069830
P_10 1.051331 1.115169 1.083384 1.125701 0.960723 1.065964
P_10 1.064410 1.088115 0.944289 0.889744 0.844069 0.745983
P_10 0.715180 0.649512 0.610734 0.518555 0.481970 0.501345
P_10 0.462730 0.480151 0.578466 0.638964 0.666135 0.797092
P_10 0.859051 0.942370 1.047572 1.163775 1.311893 1.254457
P_10 1.432713 1.409880 1.352226 1.215685 1.296391 1.483000
P_10 1.291572 1.156187 1.078870 1.120807 1.047509 0.964504
P_10 1.077888 1.041802 0.954602 0.962770 0.947445 1.017771
P_10 0.990975 1.045778 1.153842 1.224334 1.175163 1.173156
P_10 1.133182 1.187747 0.988348 0.928317 0.966695 0.807493
P_10 0.755087 0.681419 0.630351 0.526695 0.550548 0.454747
P_10 0.483649 0.561502 0.523726 0.627268 0.728464 0.736129
P_10 0.878243 0.964172 1.059914 1.189600 1.202553 1.255842
P_10 1.263559 1.253316 1.443304 1.270529 1.288345 1.263483
P_10 1.227102 1.172864 1.169278 1.122385 1.073185 1.097321
P_10 1.033776 0.967201 1.015769 1.039651 1.106453 1.090724
P_10 1.147736 1.146310 1.171746 1.167518 1.234538 1.178864
P_10 1.192206 1.214778 1.044793 1.073444 0.999689 0.818414
P_10 0.726230 0.650500 0.589201 0.606921 0.493597 0.468383
P_10 0.516179 0.508486 0.612269 0.712113 0.800520 0.801335
P_10 0.974887 1.066495 1.119238 1.119230 1.319772 1.451994
P_10 1.348427 1.388140 1.341747 1.291464 1.533854 1.304877
P_10 1.267567 1.193983 1.201130 1.248737 1.168181 1.189650
P_10 1.170710 1.069664 1.031127 1.026369 0.969806 1.048917
P_10 1.155550 1.133768 1.114660 1.241625 1.188951 1.205333
P_10 1.104937 1.145847 1.062792 1.021200 0.948739 0.848443
P_10 0.687469 0.625207 0.576654 0.624915 0.527677 0.500953
P_10 0.495568 0.571203 0.618973 0.662913 0.774939 0.850939
P_10 0.812006 1.126766 1.160293 1.198909 1.272161 1.344019
P_10 1.251042 1.278632 1.326269 1.332155 1.301370 1.228071
P_10 1.164824 1.129323 1.153929 1.169425 1.177650 1.032989
P_10 1.073973 1.079451 1.219482 1.067614 1.065962 1.141620
P_10 1.129062 1.149629 1.149322 1.189605 1.277471 1.063779
P_10 1.196745 1.157134 1.113142 1.083062 0.942230 0.902438
P_10 0.777170 0.702117 0.628570 0.604744 0.512371 0.551751
P_10 0.547607 0.613534 0.579859 0.773315 0.769030 0.942040
P_10 1.049352 1.158434 1.332041 1.331951 1.303841 1.508291
P_10 1.428194 1.499211 1.480085 1.496640 1.399293 1.344940
P_10 1.343269 1.361173 1.296290 1.168198 1.079196 1.137355
P_10 1.118990 1.186565 1.076700 1.038315 1.146587 1.250983
P_10 1.105797 1.334319 1.102973 1.272972 1.236767 1.187255
P_10 1.160219 1.027583 1.000379 1.026300 0.896826 0.855437
P_10 0.918457 0.658743 0.652975 0.593428 0.578512 0.582132
P_10 0.505195 0.582127 0.534521 0.583938 0.665065 0.696273
P_10 0.769946 0.941045 0.948965 1.018338 1.032200 1.132384
P_10 1.191944 1.349883 1.298251 1.270584 1.243842 1.273091
P_10 1.184015 1.150053 1.089186 1.258447 1.235533 1.067178
P_10 1.140883 1.088821 1.137273 1.092487 1.146042 1.180695
P_10 1.189568 1.093188 1.037438 1.138268 1.087705 0.994897
P_10 0.980365 0.991356 0.935108 0.847237 0.861391 0.846901
P_10 0.680543 0.644991 0.600224 0.649643 0.600924 0.555489
P_10 0.487695 0.529507 0.562940 0.624556 0.643311 0.625528
P_10 0.670566 0.732716 0.729002 0.895325 0.979493 1.001258
P_10 0.994286 1.079652 1.095168 1.237478 1.188171 1.230084
P_10 1.174938 1.143689 1.178257 1.165693 1.093897 0.996570
P_10 1.010511 0.997230 0.943193 0.981328 1.007031 1.047709
P_10 1.124723 1.038253 1.106107 1.155506 1.121313 1.169475
P_10 1.178058 0.995873 1.047509 0.954856 0.898245 0.767222
P_10 0.630293 0.643036 0.603742 0.534432 0.548670 0.507764
P_10 0.522825 0.535603 0.577499 0.661345 0.685013 0.808565
P_10 0.843121 0.936156 1.129606 1.166842 1.207662 1.347968
P_10 1.478141 1.398244 1.384785 1.417125 1.470612 1.307528
P_10 1.530535 1.310963 1.170778 1.082288 1.085182 1.076598
P_10 1.017532 1.029640 1.054408 1.027529 1.051585 1.032910
P_10 1.100713 1.121186 1.116115 1.186154 1.283303 1.168469
P_10 1.135148 1.052828 1.167032 1.049318 0.856101 0.852950
P_10 0.787086 0.664049 0.674331 0.543107 0.502474 0.544005
P_10 0.463848 0.545108 0.488511 0.666992 0.718201 0.779430
P_10 0.808050 1.039324 1.049654 1.175342 1.205789 1.309857
P_10 1.280208 1.352045 1.426535 1.378000 1.304401 1.387980
P_10 1.220715 1.191590 1.291346 1.227228 1.125343 1.029672
P_10 0.960669 1.071339 1.009825 1.078752 1.094765 1.135802
P_10 1.308529 1.210923 1.174705 1.197988 1.316588 1.283280
P_10 1.224612 1.167821 1.100869 1.078098 0.991263 0.872904
P_10 0.707357 0.699592 0.576769 0.560510 0.559346 0.555653
P_10 0.528145 0.558127 0.600595 0.770997 0.743554 0.876481
P_10 0.960249 0.979788 1.179334 1.131256 1.369105 1.281225
P_10 1.346064 1.446391 1.357692 1.291955 1.398604 1.298980
P_10 1.378531 1.307159 1.264932 1.194416 1.144462 1.107207
P_10 1.116122 1.091020 1.049431 1.117960 1.067197 1.066826
P_10 1.109712 1.164455 1.198716 1.295450 1.178228 1.201866
P_10 1.062072 1.113892 1.135138 1.068116 0.969174 0.923531
P_10 0.784292 0.751111 0.595866 0.574232 0.589164 0.500370
P_10 0.502079 0.552808 0.659626 0.675072 0.748291 0.878997
P_10 0.930023 0.991311 1.203690 1.252468 1.162266 1.164223
P_10 1.352076 1.397346 1.360390 1.434282 1.360591 1.293310
P_10 1.220833 1.172149 1.230112 1.068201 0.993871 1.044127
P_10 1.126290 1.075026 1.057620 0.991297 1.074815 1.103648
P_10 1.209695 1.182259 1.321980 1.203268 1.187986 1.137089
P_10 1.174476 1.120740 1.062795 1.112998 0.973718 0.912115
P_10 0.709357 0.780360 0.694243 0.579670 0.584851 0.562803
P_10 0.579068 0.643972 0.634713 0.706186 0.935077 0.940350
P_10 1.011236 1.223878 1.176913 1.329966 1.363329 1.536018
P_10 1.492063 1.431416 1.497623 1.608004 1.384157 1.391324
P_10 1.347820 1.239362 1.243364 1.200742 1.271666 1.160973
P_10 1.133816 1.034023 1.083645 1.134398 1.206691 1.219677
P_10 1.134403 1.184348 1.109506 1.183961 1.110376 1.203543
P_10 1.157740 1.133815 1.033501 0.985011 0.994811 0.871243
P_10 0.826028 0.709603 0.699289 0.660531 0.604809 0.607881