; Filename: networks/Net1.inp
; WNTR: 0.1.6
; Created: 2019-04-09 13:09:21
[TITLE]
EPANET Example Network 1
A simple example of modeling chlorine decay. Both bulk and
wall reactions are included.

[JUNCTIONS]
;ID                      Elevation       Demand Pattern                 
 10                               710               0                            ;
 11                               710               0                            ;
 12                               700               0                            ;
 13                               695               0                            ;
 21                               700               0                            ;
 22                               695               0                            ;
 23                               690               0                            ;
 31                               700               0                            ;
 32                               710               0                            ;

[RESERVOIRS]
;ID                                   Head                  Pattern
 9                                800                            ;

[TANKS]
;ID                              Elevation           Init Level            Min Level            Max Level             Diameter           Min Volume Volume Curve        
 2                                850             120             100             150            50.5               0                        ;

[PIPES]
;ID                   Node1                Node2                              Length             Diameter            Roughness           Minor Loss               Status
 10                   10                   11                             10530              18             100               0                 Open   ;
 11                   11                   12                              5280              14             100               0                 Open   ;
 12                   12                   13                              5280              10             100               0                 Open   ;
 21                   21                   22                              5280              10             100               0                 Open   ;
 22                   22                   23                              5280              12             100               0                 Open   ;
 31                   31                   32                              5280               6             100               0                 Open   ;
 110                  2                    12                               200              18             100               0                 Open   ;
 111                  11                   21                              5280              10             100               0                 Open   ;
 112                  12                   22                              5280              12             100               0                 Open   ;
 113                  13                   23                              5280               8             100               0                 Open   ;
 121                  21                   31                              5280               8             100               0                 Open   ;
 122                  22                   32                              5280               6             100               0                 Open   ;

[PUMPS]
;ID                   Node1                Node2                Properties          
 9                    9                    10                   HEAD     1                      ;

[VALVES]
;ID                   Node1                Node2                            Diameter Type              Setting           Minor Loss

[TAGS]
;type      name       tag       

[DEMANDS]
;ID        Demand     Pattern   
10         0.0        P_10      
11         150.0      P_11      
12         150.0      P_12      
13         100.0      P_13      
21         150.0      P_21      
22         200.0      P_22      
23         150.0      P_23      
31         100.0      P_31      
32         100.0      P_32      

[STATUS]
;ID        Setting   
[PATTERNS]
;ID        Multipliers

1 1.000000 1.200000 1.400000 1.600000 1.400000 1.200000
1 1.000000 0.800000 0.600000 0.400000 0.600000 0.800000

P_10 0.635359 0.528013 0.495637 0.409719 0.428092 0.411666
P_10 0.404181 0.414239 0.466308 0.533496 0.533360 0.635825
P_10 0.695550 0.791523 0.898863 1.045084 1.050780 1.125094
P_10 1.228965 1.408219 1.275436 1.344277 1.276093 1.248283
P_10 1.163717 1.103863 1.038113 1.071545 1.031405 0.945907
P_10 1.000137 0.870228 0.891028 0.964946 0.946326 0.977764
P_10 0.933177 1.021504 1.007147 1.093823 1.080511 1.000976
P_10 1.139927 1.023038 0.929808 0.823758 0.796669 0.717109
P_10 0.630772 0.560031 0.510407 0.446641 0.436824 0.411248
P_10 0.397026 0.393605 0.472797 0.555114 0.611974 0.691491
P_10 0.746274 0.894525 0.920931 1.032296 1.032031 1.048978
P_10 1.267561 1.073754 1.221650 1.243436 1.227651 1.165019
P_10 1.121149 1.053246 1.005951 1.059624 0.997085 0.908322
P_10 0.928292 0.953313 0.907740 0.942218 0.944349 0.991196
P_10 1.035763 1.077824 1.098102 1.104683 1.074418 1.159353
P_10 1.098164 1.060951 0.941366 0.828264 0.831716 0.723466
P_10 0.640889 0.570953 0.546735 0.468452 0.421915 0.401543
P_10 0.403664 0.446430 0.496481 0.473965 0.661426 0.627839
P_10 0.829292 0.836720 0.964480 0.959778 0.990663 1.105421
P_10 1.133286 1.082832 1.215238 1.124898 1.119578 1.159090
P_10 1.188721 1.148896 1.087475 1.100077 1.045596 1.073869
P_10 1.085022 0.945290 0.982586 1.051069 0.998660 1.027350
P_10 1.055192 0.989216 1.040460 1.080602 1.072017 1.066247
P_10 1.084375 0.937827 0.914943 0.865384 0.809675 0.704174
P_10 0.652132 0.538851 0.509685 0.492688 0.422743 0.453500
P_10 0.397393 0.424889 0.464313 0.530436 0.587746 0.616341
P_10 0.846644 0.909827 0.900940 1.002554 1.034495 1.117584
P_10 1.144972 1.294502 1.148091 1.178940 1.121661 1.074700
P_10 1.055345 1.039573 0.980434 1.035362 1.038706 0.930362
P_10 1.005444 0.958127 1.048077 0.938391 1.041115 1.053393
P_10 1.012542 1.047524 1.083377 1.062687 0.988386 1.017695
P_10 1.044043 1.052757 0.951729 0.929548 0.864153 0.681377
P_10 0.690479 0.617223 0.563631 0.492539 0.469813 0.416491
P_10 0.453063 0.447901 0.499576 0.576864 0.667584 0.766251
P_10 0.883187 0.895414 1.031844 1.196254 1.226908 1.255750
P_10 1.285700 1.479919 1.413823 1.246350 1.365985 1.269978
P_10 1.191899 1.240221 1.188660 1.114679 1.031678 1.129861
P_10 1.003483 1.180856 1.023737 1.182380 0.999245 1.115253
P_10 0.994776 1.171343 1.037679 1.078129 0.979898 0.961858
P_10 0.961680 0.899928 0.905138 0.974490 0.772500 0.703818
P_10 0.649994 0.611247 0.646031 0.555988 0.535213 0.485491
P_10 0.445571 0.447918 0.458378 0.483596 0.528356 0.546911
P_10 0.623091 0.730185 0.740192 0.901605 0.930513 0.968159
P_10 1.020739 1.015338 1.120304 1.166043 1.022632 1.104966
P_10 1.223941 1.188951 1.114227 1.078688 1.072381 1.114675
P_10 1.072446 1.073507 1.099362 1.042667 1.092288 0.989996
P_10 1.056693 1.041470 1.124060 0.957420 0.988619 0.879489
P_10 0.932009 0.898754 0.841622 0.763650 0.644523 0.701549
P_10 0.575054 0.600310 0.566915 0.582433 0.553056 0.492232
P_10 0.465862 0.440905 0.454083 0.451743 0.474960 0.496327
P_10 0.573954 0.614706 0.681497 0.687685 0.777918 0.860870
P_10 0.811603 0.909198 0.914510 1.096061 1.009177 1.082960
P_10 1.072355 1.002600 1.025566 1.044061 0.947852 0.962604
P_10 0.988437 0.876522 0.960469 0.953821 0.962134 0.892748
P_10 1.013161 0.951485 0.981615 1.105597 0.995983 0.925378
P_10 0.915217 0.850847 0.918622 0.836338 0.778886 0.681063
P_10 0.610877 0.528723 0.506386 0.430255 0.439528 0.412809
P_10 0.410605 0.456572 0.486346 0.530275 0.609384 0.669462
P_10 0.777245 0.765153 0.920633 0.994804 1.126055 1.192511
P_10 1.278514 1.223619 1.237355 1.279307 1.216188 1.305132
P_10 1.252809 1.212032 1.031323 1.018069 1.043497 0.875278
P_10 0.990941 0.851013 0.968569 0.980084 0.948386 0.971642
P_10 1.035675 1.069179 1.055176 0.966036 1.185080 1.010196
P_10 1.060145 0.910104 0.943961 0.814420 0.824736 0.735296
P_10 0.654857 0.601564 0.584726 0.476483 0.416352 0.411822
P_10 0.402293 0.448428 0.444474 0.539858 0.563421 0.654404
P_10 0.734781 0.910790 0.912780 0.907079 1.015812 1.045905
P_10 1.097476 1.210993 1.277103 1.344029 1.226226 1.138627
P_10 1.153513 1.156284 0.996918 1.167768 0.974694 1.002271
P_10 0.952081 0.847646 0.935012 0.954733 0.985008 1.085400
P_10 1.029684 1.022194 1.022017 1.019026 1.100676 1.110891
P_10 1.021231 1.029599 0.949992 0.779046 0.852130 0.707858
P_10 0.671837 0.596631 0.538270 0.443857 0.467063 0.402769
P_10 0.421368 0.447529 0.478878 0.578704 0.652981 0.752713
P_10 0.777034 0.893957 0.967222 0.995196 1.076259 1.071997
P_10 1.190030 1.155412 1.072176 1.296311 1.109168 1.163734
P_10 1.155328 1.180141 1.096210 1.083831 1.040434 1.073462
P_10 1.060755 1.057690 1.100550 0.983718 1.018877 0.934162
P_10 1.038366 1.067004 1.143494 1.145863 1.060901 0.964263
P_10 1.010485 1.025691 0.985137 0.905513 0.789103 0.742984
P_10 0.708472 0.576703 0.520221 0.476985 0.429866 0.424859
P_10 0.461276 0.413549 0.469453 0.573168 0.658985 0.653846
P_10 0.739909 0.889629 0.924790 1.108248 1.114773 1.192005
P_10 1.138591 1.128328 1.207067 1.102355 1.175973 1.219478
P_10 1.153087 1.041701 1.123105 1.010874 1.059907 0.944632
P_10 1.025539 1.049779 1.046248 1.020166 1.055726 0.979667
P_10 1.030552 1.185860 1.050415 1.040080 1.142704 1.050020
P_10 1.114624 0.978295 0.974361 0.909250 0.797195 0.789151
P_10 0.687140 0.588267 0.550964 0.474220 0.470595 0.451276
P_10 0.465988 0.492694 0.476196 0.606475 0.665544 0.766764
P_10 0.879125 0.940143 1.080189 1.169069 1.210861 1.217632
P_10 1.319000 1.358916 1.488224 1.406283 1.328031 1.304902
P_10 1.292806 1.174558 1.259776 1.168929 1.110841 1.005795
P_10 1.072772 1.047499 1.091999 1.069492 1.081146 0.965096
P_10 1.090252 1.096279 1.002245 1.068915 1.069661 0.999521
P_10 1.022683 0.948052 0.925838 0.879256 0.776741 0.739566
P_10 0.719328 0.701184 0.649826 0.566658 0.540392 0.483563
P_10 0.498425 0.489751 0.480854 0.548629 0.554363 0.639046
P_10 0.582488 0.732558 0.761575 0.888555 0.972986 0.973632
P_10 1.072117 1.052434 1.150285 1.086618 1.258498 1.088386
P_10 1.165186 1.117020 1.214593 1.145690 1.072707 1.075478
P_10 1.085655 1.039828 1.198490 1.033639 1.070130 1.162011
P_10 1.096444 1.063306 0.937930 1.040727 0.931647 0.973216
P_10 0.898651 0.854883 0.861983 0.727024 0.706868 0.666306
P_10 0.649264 0.601900 0.603920 0.559206 0.497984 0.493847
P_10 0.524118 0.467974 0.429627 0.441060 0.468342 0.504159
P_10 0.519686 0.590035 0.705955 0.735013 0.784145 0.826794
P_10 0.901177 0.917021 0.960725 1.008585 0.982373 1.123951
P_10 1.042828 1.072161 1.089635 0.989012 1.039024 1.031579
P_10 1.028850 0.895099 0.892721 0.963495 1.060743 1.021078
P_10 1.047440 0.990819 1.013764 1.012770 1.013367 0.996382
P_10 1.023054 0.997447 0.836865 0.859598 0.818419 0.759751
P_10 0.585975 0.554617 0.481223 0.424771 0.450229 0.418197
P_10 0.411340 0.420220 0.475851 0.515004 0.589248 0.691535
P_10 0.787129 0.817164 0.992137 1.052138 1.032276 1.210033
P_10 1.323134 1.258403 1.287490 1.221322 1.312237 1.247842
P_10 1.272119 1.248035 1.137827 1.008826 0.923688 0.980616
P_10 0.883084 0.941343 0.929969 0.936551 0.972411 1.009084
P_10 1.022067 1.067084 1.054146 1.064981 1.112545 1.054034
P_10 1.097223 1.064840 0.862774 0.947495 0.858053 0.815599
P_10 0.688856 0.635094 0.550590 0.469389 0.419392 0.405386
P_10 0.411884 0.472079 0.458546 0.565904 0.616141 0.602762
P_10 0.799592 0.768265 0.860699 0.958269 1.167417 1.230267
P_10 1.212883 1.163700 1.219161 1.180320 1.268904 1.192909
P_10 1.222378 1.079173 1.091151 1.100530 1.020222 1.008781
P_10 1.013365 1.009499 0.987812 1.041362 0.982127 1.051965
P_10 0.977970 1.164102 1.040520 1.161741 1.085323 1.137178
P_10 1.089894 1.012906 0.986131 0.945096 0.825644 0.809879
P_10 0.668266 0.595575 0.496583 0.505391 0.428527 0.446617
P_10 0.412794 0.485590 0.495068 0.565535 0.645359 0.724958
P_10 0.746443 0.881606 0.978158 1.087243 1.150498 1.202363
P_10 1.208550 1.252271 1.234699 1.239477 1.225192 1.183784
P_10 1.233386 1.177396 1.186090 1.208828 1.111403 1.032742
P_10 1.014900 1.028088 1.019343 1.064799 1.057994 1.074893
P_10 1.135645 1.071897 0.962145 1.108443 1.078584 1.027322
P_10 1.039284 0.997084 0.985586 1.013521 0.939013 0.760451
P_10 0.659149 0.615227 0.511412 0.509909 0.454989 0.446512
P_10 0.414740 0.459530 0.521017 0.517247 0.702950 0.677378
P_10 0.821144 0.867299 0.984509 1.036768 1.119694 1.252630
P_10 1.226866 1.145530 1.168907 1.264205 1.197882 1.190956
P_10 1.190181 1.124629 1.052595 1.078594 0.994545 1.045789
P_10 1.036665 1.003172 0.940167 1.009007 1.075723 1.036266
P_10 1.161892 1.025722 1.163845 1.183049 1.036072 1.182529
P_10 1.082834 0.939576 0.949162 0.956477 0.878086 0.793653
P_10 0.648681 0.606447 0.522927 0.538313 0.446069 0.425350
P_10 0.469047 0.516536 0.523687 0.620481 0.701170 0.800866
P_10 0.923461 1.018154 1.217001 1.215467 1.348897 1.405542
P_10 1.421033 1.424360 1.440536 1.366068 1.350297 1.335773
P_10 1.250643 1.192338 1.183595 1.118286 1.144417 1.183919
P_10 1.116325 1.197033 1.034190 1.135523 1.069276 1.173018
P_10 1.141781 1.127536 1.099139 1.128101 1.113777 0.989706
P_10 1.087582 1.001136 0.988217 0.901344 0.900709 0.764828
P_10 0.699070 0.721153 0.633928 0.541624 0.468863 0.519287
P_10 0.496815 0.454445 0.475405 0.549264 0.559230 0.575598
P_10 0.631783 0.709861 0.696641 0.926556 0.924623 1.005131
P_10 1.133706 1.166492 1.176012 1.378007 1.164609 1.200210
P_10 1.183682 1.117284 1.035385 1.120939 1.014630 1.093317
P_10 1.073236 1.108375 1.154502 1.160692 1.127800 1.160829
P_10 1.121589 1.054227 1.071928 1.070782 1.008142 0.919595
P_10 0.935648 0.889766 0.921819 0.689638 0.727268 0.679922
P_10 0.701413 0.591709 0.603326 0.528410 0.536063 0.460895
P_10 0.477152 0.426866 0.418971 0.442827 0.496707 0.490414
P_10 0.535156 0.604944 0.638235 0.779434 0.791147 0.883050
P_10 0.906473 0.995513 0.945540 1.029147 1.044535 1.190032
P_10 1.105244 1.135812 1.124352 1.057402 1.028695 1.033746
P_10 0.936555 1.080869 0.961002 1.026611 1.033422 0.981952
P_10 0.954140 0.952413 1.082023 1.083564 0.971384 1.066202
P_10 0.946858 0.972794 0.913377 0.810480 0.765436 0.688923
P_10 0.663168 0.541996 0.500606 0.417879 0.422389 0.451776
P_10 0.420665 0.457235 0.441364 0.543575 0.628534 0.690571
P_10 0.802739 0.757721 0.988588 1.070799 1.134262 1.149802
P_10 1.255721 1.253324 1.352850 1.424879 1.285740 1.319368
P_10 1.276252 1.329432 1.138956 1.132327 1.102608 0.944702
P_10 0.946122 0.960960 0.896226 1.001900 1.038179 0.995524
P_10 1.028219 1.095475 1.071120 1.082719 1.197023 1.099517
P_10 1.059399 1.067673 0.976820 0.900743 0.856685 0.814199
P_10 0.655643 0.623048 0.569778 0.512678 0.463607 0.434424
P_10 0.420438 0.430494 0.516384 0.518668 0.640139 0.687709
P_10 0.746823 0.866006 0.993091 1.016638 1.001353 1.138166
P_10 1.201102 1.206379 1.174876 1.400510 1.108954 1.240859
P_10 1.149621 1.224696 1.097596 1.102963 0.985853 1.020082
P_10 1.037510 0.942028 0.971982 0.955173 1.017394 1.081213
P_10 1.124665 1.167345 1.084836 1.174424 1.243146 1.046364
P_10 1.140379 1.097745 1.004494 0.909528 0.869038 0.797970
P_10 0.730221 0.580322 0.550218 0.510978 0.440205 0.425985
P_10 0.415901 0.485017 0.569936 0.563695 0.709250 0.727175
P_10 0.846484 0.957540 0.961079 1.087219 1.179047 1.162166
P_10 1.116924 1.418120 1.204155 1.304518 1.158449 1.285197
P_10 1.161690 1.259699 1.167432 1.123009 1.115099 1.073138
P_10 1.096414 1.091429 1.061955 1.086973 1.098577 0.988427
P_10 1.080162 1.105333 1.095223 1.101079 1.167248 1.160775
P_10 1.106057 1.056471 0.995756 0.928400 0.974154 0.727793
P_10 0.669591 0.632547 0.566545 0.446722 0.455303 0.432726
P_10 0.431708 0.498148 0.526663 0.561354 0.673530 0.756139
P_10 0.835703 0.959559 0.974727 1.005046 1.013071 1.188491
P_10 1.169817 1.285175 1.245789 1.172352 1.096776 1.201488
P_10 1.164430 1.110859 1.075353 1.048709 1.081194 1.122314
P_10 0.972114 1.020513 1.137150 1.008494 1.126482 1.004944
P_10 1.122912 1.102740 1.153330 1.069464 1.126517 1.053715
P_10 1.181999 0.966970 1.037465 1.027010 0.810096 0.773288
P_10 0.668823 0.577048 0.551143 0.531084 0.450502 0.459239
P_10 0.433668 0.506312 0.520182 0.659390 0.752605 0.852910
P_10 0.903140 1.022242 1.118581 1.215103 1.406457 1.282049
P_10 1.275261 1.506327 1.346754 1.446252 1.369904 1.379794
P_10 1.313522 1.321672 1.182991 1.154044 1.133996 1.089269
P_10 1.202143 1.070734 1.113264 1.108754 1.192005 1.137898
P_10 1.072767 1.119762 1.209178 1.132857 1.147313 0.996605
P_10 1.048543 0.966395 0.978068 0.953652 0.873535 0.804923
P_10 0.771391 0.638045 0.579098 0.551408 0.558992 0.465742
P_10 0.478998 0.478389 0.516856 0.539231 0.571132 0.604889
P_10 0.616587 0.716028 0.821665 0.869062 0.935369 0.992107
P_10 1.071845 1.070099 1.159275 1.122938 1.207871 1.212934
P_10 1.203560 1.189185 1.222359 1.211552 1.096201 1.110079
P_10 1.143178 1.126200 1.162932 1.191504 1.177119 1.076320
P_10 1.119134 1.166179 1.103197 1.022824 1.074970 1.009730
P_10 0.940834 0.827041 0.895534 0.719559 0.766560 0.687466
P_10 0.697928 0.654755 0.608921 0.530243 0.541559 0.510941
P_10 0.543269 0.508037 0.468659 0.450636 0.527276 0.516796
P_10 0.533307 0.565611 0.719658 0.701377 0.814855 0.779580
P_10 0.891776 0.920974 1.043943 1.095488 1.051290 1.144574
P_10 1.101893 1.164462 1.186344 1.078608 0.969592 1.040230
P_10 1.001433 0.961044 1.004868 1.026532 0.977001 0.934335
P_10 1.058888 1.059351 1.011765 0.989407 1.108169 1.019642
P_10 1.024755 0.956610 0.864140 0.808351 0.800268 0.682765
P_10 0.655947 0.562536 0.519958 0.466806 0.418379 0.434540
P_10 0.416920 0.445318 0.551151 0.572324 0.595795 0.663691
P_10 0.728694 0.857760 0.961608 1.009577 1.140933 1.270010
P_10 1.192527 1.206123 1.450824 1.383293 1.298731 1.319132
P_10 1.290687 1.181342 1.223050 1.077277 0.943559 1.006792
P_10 1.087864 0.935974 0.998666 1.011323 0.996124 0.940217
P_10 1.096752 1.126607 1.089452 1.131458 1.142773 1.019130
P_10 1.116152 1.059954 1.019711 0.939244 0.964317 0.781732
P_10 0.708456 0.637292 0.558662 0.485560 0.478155 0.427681
P_10 0.447004 0.462934 0.469714 0.554874 0.597517 0.733659
P_10 0.831388 0.888360 0.968203 0.992089 1.113228 1.136259
P_10 1.246824 1.193194 1.300036 1.382123 1.176480 1.218861
P_10 1.161807 1.104579 1.171991 1.052346 1.148725 1.052792
P_10 0.919997 1.008027 0.991307 1.008439 1.068537 1.016539
P_10 1.116264 1.150647 1.191115 1.125020 1.092071 1.194046
P_10 1.096285 1.095240 1.053194 0.927018 0.796026 0.799777
P_10 0.653084 0.642322 0.517411 0.468674 0.482792 0.447169
P_10 0.461119 0.500953 0.572993 0.564772 0.617520 0.757758
P_10 0.820823 0.950952 0.994882 1.043846 1.116176 1.211329
P_10 1.297390 1.195908 1.302213 1.166622 1.315722 1.238841
P_10 1.300284 1.280137 1.222195 1.176697 1.103443 1.191577
P_10 1.098321 1.047263 1.037627 1.049887 1.123380 1.069980
P_10 1.174158 1.073179 1.138383 1.247220 1.221379 1.185950
P_10 1.073381 1.073418 0.958545 0.892524 0.833347 0.718983
P_10 0.768232 0.690203 0.537944 0.533156 0.501636 0.411993
P_10 0.443831 0.482592 0.505715 0.623428 0.680773 0.850008
P_10 0.895901 0.906994 1.048616 1.081030 1.196310 1.278531
P_10 1.234819 1.316000 1.286296 1.191593 1.136230 1.208030
P_10 1.179648 1.172098 1.194137 1.073862 1.024302 1.091470
P_10 1.106612 1.104890 1.012283 1.008792 1.147663 1.027950
P_10 1.176748 1.163817 1.105733 1.298176 1.139108 1.227712
P_10 1.069449 1.061367 1.062907 0.904919 0.854642 0.779771
P_10 0.746331 0.701822 0.581877 0.550819 0.491056 0.476737
P_10 0.512418 0.530860 0.573325 0.627026 0.776498 0.814095
P_10 0.944462 1.084672 1.131583 1.237928 1.239319 1.445988
P_10 1.444810 1.484568 1.304617 1.445301 1.373134 1.420434
P_10 1.332894 1.335536 1.279809 1.134949 1.118183 1.138187
P_10 1.134679 1.284662 1.143345 1.113323 1.093804 1.228684
P_10 1.067049 1.178912 1.188923 1.048907 1.088992 1.244320
P_10 1.099613 1.008373 0.967419 0.862021 0.865459 0.855953
P_10 0.775092 0.665980 0.651761 0.600697 0.537423 0.517900
P_10 0.515043 0.518225 0.494400 0.476783 0.606854 0.649671
P_10 0.647421 0.811755 0.868221 0.938205 0.981904 1.037783
P_10 1.131377 1.127933 1.151760 1.236447 1.123777 1.133593
P_10 1.200271 1.173769 1.138009 1.074213 1.221250 1.123767
P_10 1.136609 1.167661 1.208428 1.341650 1.162936 1.222508
P_10 0.987608 1.135169 1.156568 1.029376 1.071968 0.981307
P_10 0.934520 0.935891 0.824533 0.876269 0.784614 0.756929
P_10 0.704741 0.704829 0.623648 0.580014 0.510037 0.474578
P_10 0.501897 0.488852 0.540568 0.511533 0.508077 0.491346
P_10 0.586926 0.604160 0.630587 0.707461 0.864065 0.940585
P_10 0.914795 0.956544 1.130626 1.149958 1.137064 1.103740
P_10 1.055057 1.097494 1.112037 1.036980 1.197413 1.093365
P_10 0.981256 0.941965 1.002567 1.007169 1.071800 1.061551
P_10 1.106280 1.145278 1.189068 1.063670 1.034081 1.014024
P_10 1.019769 0.889651 0.950116 0.863603 0.777284 0.728923
P_10 0.669045 0.604137 0.484580 0.427863 0.443004 0.428436
P_10 0.465783 0.472704 0.500345 0.540343 0.651522 0.735227
P_10 0.815351 0.822763 1.029421 1.125116 1.112713 1.158270
P_10 1.342598 1.308497 1.289895 1.385659 1.333886 1.349045
P_10 1.287836 1.242522 1.232924 1.110941 1.065595 1.071227
P_10 1.111696 0.982353 1.046905 0.970014 1.043800 1.030114
P_10 1.026320 1.086536 1.175118 1.152871 1.267683 1.023986
P_10 1.078041 1.087764 0.961956 0.861210 0.859416 0.692499
P_10 0.702074 0.673969 0.540931 0.544717 0.463221 0.484438
P_10 0.424824 0.463417 0.500308 0.563089 0.654281 0.738329
P_10 0.720314 0.910600 0.929112 1.108343 1.093097 1.214242
P_10 1.298723 1.280310 1.307518 1.384750 1.193948 1.344067
P_10 1.239918 1.286881 1.206184 1.057195 1.029847 1.065343
P_10 1.066288 1.008510 1.182612 1.096344 1.077902 1.157718
P_10 1.231234 1.224773 1.218624 1.143652 1.077342 1.218639
P_10 1.208577 1.143751 0.956433 0.949613 0.927557 0.738964
P_10 0.755075 0.653327 0.527884 0.498029 0.435132 0.459598
P_10 0.476853 0.464458 0.549891 0.648368 0.764557 0.731252
P_10 0.866610 0.891293 0.974803 1.109378 1.154513 1.213445
P_10 1.242707 1.230724 1.314414 1.378018 1.330215 1.345576
P_10 1.309673 1.228058 1.121417 1.145165 1.101760 1.130063
P_10 1.049360 1.031238 1.193342 1.104804 1.101545 1.036253
P_10 1.014197 1.185101 1.292338 1.162293 1.106682 1.169735
P_10 1.221979 1.157953 0.938795 1.041244 0.993326 0.829458
P_10 0.702417 0.603223 0.531816 0.512712 0.451321 0.482628
P_10 0.455283 0.502654 0.546589 0.627359 0.708474 0.740590
P_10 0.911879 1.012538 1.035559 1.131373 1.057058 1.207048
P_10 1.346346 1.291058 1.379675 1.260766 1.275896 1.186061
P_10 1.155843 1.179256 1.140670 1.247318 1.126566 1.190391
P_10 0.977676 1.039967 1.085363 1.130330 1.104325 1.258280
P_10 1.120459 1.123471 1.187762 1.182352 1.127293 1.127793
P_10 1.095783 1.047031 1.001753 0.988722 0.908675 0.840266
P_10 0.783853 0.633011 0.569468 0.593900 0.490702 0.460730
P_10 0.464162 0.540815 0.559526 0.683415 0.747339 0.811463
P_10 0.966011 1.078645 1.227543 1.304021 1.272040 1.378629
P_10 1.490422 1.475157 1.461059 1.388695 1.391338 1.396380
P_10 1.421072 1.281385 1.266823 1.192881 1.098182 1.120915
P_10 1.155657 1.225750 1.154234 1.096707 1.189189 1.177549
P_10 1.192214 1.150537 1.164177 1.016352 1.205481 1.070002
P_10 0.983816 1.014256 0.998181 0.992441 0.853521 0.787524
P_10 0.768187 0.701057 0.612131 0.626858 0.548248 0.521178
P_10 0.533204 0.446956 0.551653 0.533079 0.587543 0.591285
P_10 0.743459 0.845126 0.860545 0.988658 1.074909 1.015993
P_10 1.161643 1.250625 1.218567 1.239311 1.274449 1.319801
P_10 1.321580 1.331436 1.186632 1.244793 1.170721 1.219755
P_10 1.128058 1.130567 1.215473 1.198554 1.201192 1.057506
P_10 1.266928 1.107509 1.159047 1.158048 1.046405 1.022930
P_10 1.092926 0.916251 0.872891 0.885458 0.816830 0.777192
P_10 0.671397 0.626379 0.641493 0.601933 0.521770 0.512101
P_10 0.508987 0.465989 0.518053 0.533933 0.457023 0.518034
P_10 0.569572 0.668188 0.690857 0.809853 0.868194 0.920018
P_10 0.908348 0.942797 1.064664 1.122935 1.140978 1.015057
P_10 1.144795 1.151221 1.166180 1.168555 1.114780 1.125473
P_10 1.046530 1.030654 1.015657 1.121916 1.071519 1.011965
P_10 1.069886 1.160508 1.100543 1.148299 1.061531 1.134019
P_10 1.240325 1.047083 0.951850 0.868929 0.825441 0.734590
P_10 0.702394 0.593154 0.558491 0.454725 0.447447 0.436908
P_10 0.464561 0.467510 0.486642 0.565039 0.582045 0.699025
P_10 0.793351 0.905504 0.976116 1.007346 1.250766 1.204642
P_10 1.306237 1.367639 1.440944 1.384134 1.450225 1.415707
P_10 1.326406 1.243522 1.255831 1.273812 1.201279 1.050708
P_10 0.970704 0.928210 0.954014 1.025487 0.976348 1.117143
P_10 1.105347 1.053588 1.214943 1.191319 1.223236 1.282368
P_10 1.143445 1.065156 1.078875 1.036345 0.942195 0.766840
P_10 0.745516 0.658723 0.584474 0.528984 0.473710 0.488247
P_10 0.457537 0.475496 0.548065 0.590226 0.691862 0.749881
P_10 0.809845 0.894432 0.964749 1.081312 1.182394 1.283075
P_10 1.275920 1.267204 1.251750 1.327650 1.414302 1.322189
P_10 1.239425 1.303229 1.137434 1.147433 1.117251 0.987735
P_10 1.054247 1.148763 1.070268 1.084514 1.145156 1.086298
P_10 1.202521 1.099185 1.163962 1.268927 1.238707 1.223389
P_10 1.200981 1.059424 1.073422 0.923398 0.938344 0.778610
P_10 0.755272 0.637056 0.566075 0.470028 0.480020 0.463938
P_10 0.536330 0.482363 0.578503 0.619664 0.646371 0.704486
P_10 0.815928 1.019703 1.001324 1.189534 1.251012 1.261464
P_10 1.264577 1.342234 1.263030 1.327242 1.341339 1.454695
P_10 1.290346 1.252289 1.257837 1.207077 1.179018 1.132455
P_10 1.102752 1.122970 1.155042 1.074255 1.249482 1.096885
P_10 1.109888 1.144255 1.126964 1.256157 1.299498 1.192336
P_10 1.080096 1.137074 1.196039 1.004595 0.911665 0.788690
P_10 0.788776 0.660611 0.567524 0.480238 0.458901 0.481348
P_10 0.431929 0.516895 0.532890 0.599973 0.718732 0.758015
P_10 1.001670 1.011965 1.039751 1.155872 1.208070 1.300930
P_10 1.355005 1.310126 1.412183 1.263378 1.308496 1.209825
P_10 1.341625 1.190482 1.214844 1.117959 1.189389 1.140240
P_10 1.133813 1.137523 1.072081 1.145175 1.183024 1.220956
P_10 1.160789 1.264460 1.129128 1.231187 1.278122 1.245724
P_10 1.165952 1.111890 1.082244 0.979939 0.983061 0.774056
P_10 0.744642 0.719910 0.625486 0.582850 0.448623 0.491735
P_10 0.495141 0.555274 0.553994 0.704698 0.760114 0.884293
P_10 1.028009 1.029231 1.163811 1.230566 1.466436 1.366052
P_10 1.452910 1.650684 1.451085 1.462164 1.483998 1.507909
P_10 1.410316 1.383747 1.267778 1.256268 1.172061 1.110898
P_10 1.199652 1.164750 1.127451 1.201837 1.205262 1.193753
P_10 1.210127 1.133000 1.210835 1.135433 1.181301 1.098286
P_10 1.264675 1.133974 0.969901 1.009981 0.952327 0.851682
P_10 0.824864 0.772940 0.604470 0.639761 0.542766 0.526495
P_10 0.502513 0.500070 0.514737 0.609952 0.618398 0.678645
P_10 0.755034 0.789883 0.937538 1.028003 1.018043 1.020773
P_10 1.153171 1.130601 1.302574 1.406333 1.284573 1.321514
P_10 1.282073 1.285054 1.306812 1.278038 1.127919 1.119333
P_10 1.087508 1.172136 1.156817 1.199224 1.340638 1.207115
P_10 1.103935 1.110493 1.196274 1.036646 1.099441 1.072087
P_10 0.940587 0.993022 0.889434 0.876834 0.724603 0.780356
P_10 0.691194 0.631085 0.656873 0.608228 0.531916 0.556509
P_10 0.536040 0.498581 0.505515 0.533192 0.578091 0.565179
P_10 0.627245 0.600455 0.695853 0.780023 0.841768 0.922346
P_10 0.952439 1.119822 1.065035 1.092612 1.228648 1.211153
P_10 1.206753 1.239264 1.246145 1.065277 1.128313 1.067187
P_10 1.166537 1.036135 1.029035 1.051340 1.062699 1.096636
P_10 1.123180 1.076168 1.139323 1.124261 1.133327 1.047449
P_10 1.189028 1.032833 0.879617 0.925910 0.847943 0.760834
P_10 0.654715 0.625775 0.517276 0.516203 0.460691 0.474877
P_10 0.476904 0.492793 0.532965 0.577486 0.666358 0.745498
P_10 0.783831 0.884362 1.077441 1.099423 1.145725 1.265248
P_10 1.467030 1.402811 1.380771 1.390585 1.313131 1.437472
P_10 1.264187 1.260217 1.178726 1.205235 1.214429 1.002713
P_10 1.089032 1.093642 1.008058 1.099643 1.127261 1.156075
P_10 1.094535 1.181182 1.097205 1.158753 1.188973 1.205384
P_10 1.214080 1.145753 1.150976 1.013496 0.888575 0.837593
P_10 0.682763 0.718009 0.618977 0.570010 0.475359 0.445830
P_10 0.498134 0.473903 0.536373 0.580701 0.698491 0.817143
P_10 0.804865 0.988132 1.076104 1.182057 1.183512 1.274140
P_10 1.314738 1.355981 1.282054 1.362460 1.271006 1.365460
P_10 1.274874 1.281876 1.225393 1.129131 1.093524 0.989168
P_10 0.971017 1.010841 1.096035 1.178266 1.221614 1.202447
P_10 1.114253 1.263599 1.240610 1.171506 1.285390 1.235509
P_10 1.217510 1.126038 1.089463 1.045171 0.951900 0.799577
P_10 0.781632 0.628090 0.578922 0.504605 0.492127 0.474059
P_10 0.473948 0.505002 0.602769 0.649146 0.701527 0.867272
P_10 0.964240 0.967782 1.053513 1.143699 1.189938 1.267335
P_10 1.334405 1.381568 1.454551 1.400724 1.402610 1.356586
P_10 1.386600 1.280316 1.218457 1.250839 1.223394 1.023845
P_10 1.234104 1.086909 1.069640 1.088309 1.138746 1.203108
P_10 1.206226 1.244151 1.127293 1.302320 1.159289 1.232977
P_10 1.078269 1.227575 1.168117 1.056793 0.878341 0.823978
P_10 0.766071 0.696810 0.587174 0.525962 0.528760 0.451517
P_10 0.473084 0.510139 0.471550 0.674086 0.671104 0.778453
P_10 0.928891 0.967351 1.112189 1.236493 1.213466 1.266587
P_10 1.313432 1.251939 1.331673 1.322274 1.300056 1.322339
P_10 1.248521 1.242773 1.145196 1.026882 1.134749 1.191521
P_10 1.295502 1.072035 1.099147 1.231320 1.245142 1.232897
P_10 1.210607 1.218547 1.083276 1.278706 1.271778 1.201021
P_10 1.173151 1.088981 1.137336 1.080391 0.963953 0.868786
P_10 0.818017 0.625533 0.641882 0.601473 0.526937 0.566357
P_10 0.525315 0.513743 0.591381 0.697983 0.801713 0.861010
P_10 1.023223 1.037450 1.302598 1.328741 1.401275 1.490174
P_10 1.524265 1.558947 1.494199 1.635553 1.379605 1.387233
P_10 1.339373 1.240267 1.152333 1.350404 1.206509 1.227979
P_10 1.143153 1.288785 1.151377 1.210869 1.189603 1.250358
P_10 1.244479 1.287450 1.321176 1.104392 1.151284 1.224384
P_10 1.064291 1.119754 1.065298 0.920179 0.896061 0.897879
P_10 0.767046 0.777475 0.714863 0.637863 0.570823 0.526489