; Filename: networks/Net1.inp
; WNTR: 0.1.6
; Created: 2019-04-09 13:10:27
[TITLE]
EPANET Example Network 1
A simple example of modeling chlorine decay. Both bulk and
wall reactions are included.

[JUNCTIONS]
;ID                      Elevation       Demand Pattern                 
 10                               710               0                            ;
 11                               710               0                            ;
 12                               700               0                            ;
 13                               695               0                            ;
 21                               700               0                            ;
 22                               695               0                            ;
 23                               690               0                            ;
 31                               700               0                            ;
 32                               710               0                            ;

[RESERVOIRS]
;ID                                   Head                  Pattern
 9                                800                            ;

[TANKS]
;ID                              Elevation           Init Level            Min Level            Max Level             Diameter           Min Volume Volume Curve        
 2                                850             120             100             150            50.5               0                        ;

[PIPES]
;ID                   Node1                Node2                              Length             Diameter            Roughness           Minor Loss               Status
 10                   10                   11                             10530              18             100               0                 Open   ;
 11                   11                   12                              5280              14             100               0                 Open   ;
 12                   12                   13                              5280              10             100               0                 Open   ;
 21                   21                   22                              5280              10             100               0                 Open   ;
 22                   22                   23                              5280              12             100               0                 Open   ;
 31                   31                   32                              5280               6             100               0                 Open   ;
 110                  2                    12                               200              18             100               0                 Open   ;
 111                  11                   21                              5280              10             100               0                 Open   ;
 112                  12                   22                              5280              12             100               0                 Open   ;
 113                  13                   23                              5280               8             100               0                 Open   ;
 121                  21                   31                              5280               8             100               0                 Open   ;
 122                  22                   32                              5280               6             100               0                 Open   ;

[PUMPS]
;ID                   Node1                Node2                Properties          
 9                    9                    10                   HEAD     1                      ;

[VALVES]
;ID                   Node1                Node2                            Diameter Type              Setting           Minor Loss

[TAGS]
;type      name       tag       

[DEMANDS]
;ID        Demand     Pattern   
10         0.0        P_10      
11         150.0      P_11      
12         150.0      P_12      
13         100.0      P_13      
21         150.0      P_21      
22         200.0      P_22      
23         150.0      P_23      
31         100.0      P_31      
32         100.0      P_32      

[STATUS]
;ID        Setting   
[PATTERNS]
;ID        Multipliers

1 1.000000 1.200000 1.400000 1.600000 1.400000 1.200000
1 1.000000 0.800000 0.600000 0.400000 0.600000 0.800000

P_10 0.653189 0.553019 0.563055 0.485250 0.474050 0.416107
P_10 0.419823 0.444162 0.489359 0.577489 0.600408 0.707029
P_10 0.778228 0.967577 0.876556 1.014896 1.176699 1.129120
P_10 1.170845 1.161245 1.131749 1.209963 1.234580 1.118324
P_10 1.148290 1.140512 1.012644 1.062390 0.822180 0.884515
P_10 0.871237 0.857172 0.828742 0.872731 0.940641 0.940805
P_10 1.076108 1.014344 1.002065 1.014595 1.111261 1.022885
P_10 1.042787 0.982653 0.995174 0.907216 0.750197 0.753679
P_10 0.627568 0.667007 0.571880 0.496385 0.463357 0.424576
P_10 0.448182 0.456547 0.516987 0.504353 0.599740 0.656782
P_10 0.720656 0.849926 0.963577 0.986721 1.121956 1.082797
P_10 1.114758 1.180365 1.179367 1.224219 1.102162 1.145765
P_10 1.204197 1.038338 1.043165 0.951438 0.970096 0.976520
P_10 0.884975 0.852556 0.888105 0.926006 0.901745 0.909611
P_10 1.022957 1.020042 1.118000 1.085422 1.029862 1.114349
P_10 1.013169 0.917311 0.929760 0.810729 0.788889 0.736433
P_10 0.718516 0.589774 0.548002 0.515167 0.485397 0.468473
P_10 0.509281 0.512603 0.491501 0.601118 0.623210 0.699049
P_10 0.775510 0.863236 0.955803 0.997194 0.958271 1.203227
P_10 1.132006 1.122116 1.142355 1.103051 1.088904 1.094547
P_10 1.137368 1.187243 1.118454 0.977659 0.941886 0.981299
P_10 1.018929 0.968742 0.944393 0.970165 0.975093 1.020214
P_10 1.035604 0.971369 1.005108 1.123223 1.040936 1.078939
P_10 1.073272 1.012874 0.934393 0.870492 0.869445 0.733408
P_10 0.732324 0.661165 0.482740 0.527070 0.464172 0.501961
P_10 0.462871 0.472883 0.513705 0.607901 0.703958 0.796514
P_10 0.741557 0.890451 1.048828 0.892860 1.065860 1.028677
P_10 1.169347 1.181173 1.147892 1.058869 1.089871 1.056413
P_10 1.028142 1.019857 1.035587 0.922478 0.918777 0.905194
P_10 0.927206 0.926111 0.976778 0.940688 0.955822 0.916598
P_10 0.944442 1.053222 1.075077 0.972486 1.047204 1.077249
P_10 1.006456 1.027613 0.920372 0.859675 0.855079 0.761069
P_10 0.714455 0.631020 0.568906 0.524355 0.440025 0.481294
P_10 0.487834 0.504579 0.591278 0.639651 0.678171 0.814304
P_10 0.914639 0.924235 1.082305 1.142568 1.253539 1.256336
P_10 1.357493 1.336758 1.283629 1.188633 1.212908 1.263760
P_10 1.260693 1.094937 1.123596 1.043677 1.038003 0.944013
P_10 0.993820 0.914520 0.967153 1.041440 1.011364 1.059710
P_10 1.136556 1.026690 0.994235 1.025009 1.059235 1.021532
P_10 1.036831 0.989560 0.930412 0.902822 0.819018 0.788673
P_10 0.710930 0.672006 0.602483 0.593664 0.581873 0.515813
P_10 0.461436 0.482669 0.465996 0.515262 0.554476 0.662438
P_10 0.634749 0.789826 0.857492 0.885517 0.833091 0.926247
P_10 0.977729 0.949601 1.049534 1.193781 1.062252 1.059076
P_10 1.167810 1.149078 1.027671 0.939021 1.049059 1.016001
P_10 1.058848 0.972018 0.915925 1.037544 1.007382 0.969989
P_10 0.966928 0.911395 0.972628 0.991147 1.012448 0.886114
P_10 0.795133 0.900045 0.848737 0.741382 0.683751 0.702478
P_10 0.656288 0.606298 0.575969 0.561762 0.627571 0.523941
P_10 0.504486 0.505727 0.465603 0.532373 0.504400 0.510990
P_10 0.584191 0.652503 0.644286 0.680193 0.757359 0.772385
P_10 0.899694 1.002096 1.012818 0.963681 1.094241 1.031926
P_10 1.054272 1.102569 1.068371 1.046273 0.916101 0.963527
P_10 0.893373 0.885115 0.927012 0.937303 0.988676 0.937502
P_10 0.919876 1.050376 1.033896 0.930497 1.035566 0.985743
P_10 0.968816 0.957270 0.878711 0.829892 0.822534 0.724025
P_10 0.605888 0.587589 0.580775 0.493703 0.463159 0.457969
P_10 0.461299 0.453649 0.513864 0.546050 0.561536 0.623826
P_10 0.787766 0.811442 0.986243 1.123476 1.080559 1.069100
P_10 1.250011 1.165077 1.268665 1.171562 1.184775 1.109382
P_10 1.137473 1.045803 0.971354 0.941199 0.915578 1.046848
P_10 0.835649 0.828776 0.858335 0.887736 0.862088 0.946936
P_10 0.952983 1.014639 1.002780 1.072740 1.074648 1.047389
P_10 1.072694 0.946466 0.945038 0.922066 0.816311 0.673611
P_10 0.687728 0.574379 0.569029 0.533731 0.443347 0.406636
P_10 0.402517 0.461851 0.515701 0.613848 0.685364 0.701341
P_10 0.766431 0.757371 0.878245 0.967350 1.062402 1.150679
P_10 1.193424 1.242737 1.104346 1.169601 1.055665 1.022694
P_10 1.170218 1.057224 1.038860 0.988130 0.931146 0.941580
P_10 0.922651 0.938218 0.863336 0.859674 0.978239 1.018048
P_10 1.064665 0.990664 1.006601 1.037965 1.086900 1.096158
P_10 1.118121 0.984088 0.954882 0.838214 0.837489 0.707855
P_10 0.665902 0.676380 0.575534 0.511208 0.473788 0.470946
P_10 0.477779 0.481642 0.550174 0.523233 0.618262 0.787684
P_10 0.811935 0.872126 0.963365 1.033444 0.999065 1.138385
P_10 1.159880 1.145400 1.169499 1.141645 1.229589 1.052574
P_10 1.156052 1.228753 0.991671 0.970722 1.010527 0.985145
P_10 0.962190 0.964705 0.918901 0.964969 0.998901 1.028054
P_10 1.056662 1.108896 1.072321 1.094151 1.169740 1.032475
P_10 1.107590 0.975718 1.021027 0.945728 0.812589 0.782103
P_10 0.629279 0.592313 0.584340 0.550393 0.489543 0.440143
P_10 0.493048 0.515461 0.533778 0.567933 0.673167 0.792288
P_10 0.790400 0.886424 0.988801 1.066165 1.015671 1.260435
P_10 1.059493 1.120834 1.166556 1.307956 1.092065 1.166488
P_10 1.100186 1.039055 1.053251 0.887443 0.965148 1.015588
P_10 0.888430 0.997124 0.926749 0.998189 1.068384 0.934250
P_10 0.946371 1.070779 1.058772 1.070963 1.029449 1.095304
P_10 1.013890 0.933380 0.975543 0.964854 0.837982 0.741197
P_10 0.664320 0.629063 0.593443 0.553068 0.446115 0.477789
P_10 0.495524 0.511287 0.567708 0.603438 0.721432 0.778651
P_10 0.926600 1.039026 1.041532 1.149772 1.180281 1.283258
P_10 1.414555 1.275706 1.404004 1.394922 1.190127 1.189075
P_10 1.176972 1.157089 1.039127 1.036956 1.012042 0.985662
P_10 1.037555 0.961089 1.032980 0.918119 0.952958 1.020128
P_10 1.025390 0.967196 1.194819 1.072991 1.039241 0.988897
P_10 0.966798 1.005762 0.916749 0.873287 0.813720 0.827112
P_10 0.707354 0.716749 0.615755 0.589657 0.552906 0.509527
P_10 0.515114 0.501738 0.487396 0.528304 0.575943 0.591851
P_10 0.661488 0.744693 0.815515 0.905889 1.045855 0.886968
P_10 1.082149 1.043275 1.165475 1.209661 1.091154 1.109753
P_10 1.124213 0.998131 1.091527 0.997776 1.044310 1.074503
P_10 0.867794 1.021846 0.981906 1.027482 1.023256 1.029967
P_10 1.040072 1.021071 1.078045 0.938539 0.985605 0.957658
P_10 0.931426 0.910816 0.813756 0.801133 0.771897 0.647068
P_10 0.697665 0.649154 0.600887 0.572103 0.530599 0.533668
P_10 0.494508 0.472105 0.469506 0.526397 0.515240 0.535050
P_10 0.555806 0.572078 0.691309 0.787247 0.810832 0.861809
P_10 0.887637 0.888615 1.044376 1.003456 0.945675 1.077136
P_10 0.994590 1.029048 1.020769 0.944351 0.992154 1.011275
P_10 0.956517 0.930951 0.874930 0.844243 0.916303 0.983291
P_10 1.077760 1.055250 0.940112 1.026288 0.986921 0.989188
P_10 0.912189 0.968878 0.861370 0.907960 0.838347 0.676189
P_10 0.684106 0.648839 0.503380 0.520907 0.492487 0.434247
P_10 0.455677 0.466572 0.543196 0.555603 0.630816 0.695178
P_10 0.760853 0.844084 0.962948 1.002256 1.090158 1.201606
P_10 1.221420 1.217723 1.328646 1.215057 1.200104 1.284899
P_10 1.195122 1.052473 1.060054 1.025547 0.894506 1.008425
P_10 0.854079 0.888615 0.884575 0.896400 0.924287 0.882336
P_10 1.015555 1.002453 1.089608 0.996876 1.106169 1.189690
P_10 1.028786 1.033569 0.829569 0.970842 0.927176 0.771977
P_10 0.742628 0.658405 0.596650 0.499263 0.488650 0.474571
P_10 0.461509 0.453334 0.552051 0.578174 0.637528 0.756392
P_10 0.785812 0.869283 0.874278 0.961823 1.072794 1.190168
P_10 1.222682 1.256093 1.187118 1.212712 1.280270 1.111967
P_10 1.060681 1.125933 1.064621 0.952837 0.968351 0.977042
P_10 0.940883 0.854922 0.926540 0.963233 0.947825 1.028298
P_10 1.082072 1.202231 1.067734 1.057027 1.101601 1.151741
P_10 1.142680 1.074219 0.970971 0.927462 0.826654 0.815253
P_10 0.671703 0.625263 0.593499 0.473916 0.491306 0.472724
P_10 0.468418 0.556410 0.507380 0.624277 0.675600 0.719686
P_10 0.881407 0.838451 1.036380 1.044994 1.097893 1.194167
P_10 1.094470 1.256957 1.184237 1.229611 1.210323 1.182187
P_10 1.113921 1.133219 1.098004 1.092700 1.061034 1.002303
P_10 0.990308 0.967193 0.967045 0.946450 1.037922 0.951341
P_10 1.083722 1.098163 1.020350 1.032345 1.158172 1.105541
P_10 1.150119 1.011931 0.927719 0.912328 0.927374 0.788748
P_10 0.669600 0.658583 0.576060 0.507842 0.492330 0.461676
P_10 0.465468 0.536274 0.488177 0.597606 0.691640 0.774294
P_10 0.793635 0.932001 1.045580 1.046642 1.194072 1.145077
P_10 1.212985 1.196427 1.175415 1.211913 1.208426 1.132476
P_10 1.138973 1.155341 1.043991 0.968192 0.943199 1.018302
P_10 0.974491 0.919448 0.993432 0.968427 1.024086 1.105653
P_10 1.092052 1.052896 1.033060 1.111352 1.060423 0.998057
P_10 1.088591 0.965553 1.018755 0.892162 0.883510 0.839729
P_10 0.797657 0.630852 0.587802 0.516505 0.510893 0.538284
P_10 0.482828 0.563437 0.603656 0.661150 0.753663 0.880616
P_10 0.956656 0.990719 1.066385 1.167838 1.321707 1.305883
P_10 1.341086 1.384013 1.354858 1.434110 1.236479 1.240561
P_10 1.256238 1.152803 1.143165 1.084350 1.032473 1.036196
P_10 1.082801 0.958719 1.082952 1.104400 1.061096 1.098023
P_10 1.028898 1.098862 1.045651 1.138868 1.079075 0.970411
P_10 0.996794 1.000840 0.854372 0.846401 0.769174 0.773252
P_10 0.796152 0.713356 0.647196 0.611111 0.600901 0.581839
P_10 0.557606 0.534955 0.511191 0.492618 0.582751 0.677046
P_10 0.740735 0.674215 0.884905 0.847572 0.939303 1.088826
P_10 1.143522 1.129562 1.118857 1.160343 1.153999 1.055036
P_10 1.118496 1.096611 1.060000 1.028925 1.054954 1.103122
P_10 1.043897 0.945443 1.071635 1.150856 1.079209 0.987873
P_10 1.114321 1.113326 1.094701 1.053376 1.027465 1.023357
P_10 0.923120 0.854630 0.866217 0.852326 0.744077 0.705710
P_10 0.641758 0.643853 0.606341 0.580523 0.541943 0.534084
P_10 0.522932 0.535681 0.524078 0.545064 0.534478 0.536628
P_10 0.653374 0.617815 0.729058 0.750996 0.846884 0.891416
P_10 0.877477 0.958518 1.067489 1.052335 0.907606 1.108171
P_10 1.116394 1.096742 1.032249 1.041282 0.993403 0.949366
P_10 0.990969 0.873478 0.920090 0.865758 0.885522 0.998144
P_10 0.910159 1.044371 1.020785 1.044487 1.018757 1.059619
P_10 0.992390 0.956036 0.844289 0.911355 0.782676 0.739315
P_10 0.656187 0.631302 0.528075 0.485776 0.484901 0.496874
P_10 0.477246 0.491601 0.503480 0.588885 0.634744 0.733753
P_10 0.838280 0.943938 0.976668 1.001063 1.080852 1.174687
P_10 1.266631 1.258118 1.264064 1.178304 1.220396 1.196122
P_10 1.234214 1.114142 1.073727 0.963679 0.955056 0.944874
P_10 0.983386 0.933565 0.889953 0.915257 0.945161 0.930779
P_10 1.042102 1.050292 1.091717 1.115905 1.168636 1.150298
P_10 1.012581 1.028834 1.085452 0.991885 0.930732 0.783709
P_10 0.752544 0.740886 0.634171 0.559159 0.495135 0.480942
P_10 0.496290 0.507111 0.543125 0.573809 0.640071 0.719324
P_10 0.835417 0.850510 0.987854 1.098445 1.009047 1.236961
P_10 1.165693 1.253279 1.359680 1.176714 1.236682 1.175891
P_10 1.072299 1.141574 1.061743 0.919589 0.981672 0.975498
P_10 0.928368 0.928450 0.954966 1.043114 1.000546 1.052124
P_10 1.056856 1.052225 1.170380 1.131929 1.140615 1.089035
P_10 1.153597 1.082250 1.001563 0.988195 0.825382 0.766278
P_10 0.674339 0.640838 0.551058 0.547348 0.473564 0.457210
P_10 0.508396 0.524366 0.556910 0.561682 0.675711 0.766788
P_10 0.804911 0.923875 0.986081 1.017580 1.007182 1.161130
P_10 1.128467 1.268164 1.101344 1.152581 1.146236 1.221357
P_10 1.159839 1.010871 1.145282 1.099933 1.033505 1.047332
P_10 0.940739 1.049216 0.974815 0.987361 0.992501 1.103998
P_10 1.025051 1.114219 1.165686 1.071455 1.090011 1.075427
P_10 1.146231 1.039359 0.974862 1.018649 0.848460 0.727284
P_10 0.749945 0.673288 0.561322 0.573442 0.513600 0.486128
P_10 0.536153 0.492651 0.536126 0.583531 0.731358 0.782594
P_10 0.899726 0.944263 0.980524 1.066104 1.135333 1.197347
P_10 1.226674 1.182303 1.237737 1.202320 1.137350 1.055291
P_10 1.170807 1.074330 1.144841 0.981645 1.026083 1.034021
P_10 0.913600 0.930092 0.920457 1.052777 1.068344 1.083510
P_10 1.090927 1.061570 1.067802 1.163681 1.062223 1.010662
P_10 1.088641 0.991629 1.005925 0.979551 0.915254 0.783593
P_10 0.718921 0.657392 0.642615 0.533400 0.521894 0.484954
P_10 0.513154 0.552046 0.615516 0.579347 0.726493 0.810372
P_10 0.980809 1.031486 1.138646 1.169342 1.260080 1.307827
P_10 1.306240 1.439809 1.479246 1.361072 1.260952 1.307764
P_10 1.256610 1.211589 1.093612 0.974598 1.100752 0.981064
P_10 1.020972 1.028644 1.054124 0.968559 1.035790 1.105056
P_10 0.975074 1.079694 1.091426 1.187373 0.998552 1.067769
P_10 1.006262 1.015897 0.931980 0.904439 0.793067 0.815443
P_10 0.827128 0.627149 0.675108 0.609794 0.596597 0.569375
P_10 0.481521 0.511657 0.578634 0.582044 0.610222 0.660072
P_10 0.621437 0.756428 0.842638 0.846056 1.004137 1.110801
P_10 1.168374 1.185023 1.091149 1.132363 1.148107 1.134105
P_10 1.118478 1.131674 1.069653 1.069368 1.076187 1.056899
P_10 1.031921 1.090860 1.130398 1.013627 1.089266 1.037563
P_10 1.010039 0.889892 1.020833 1.002069 1.077923 1.031324
P_10 1.049726 0.951803 0.881030 0.821539 0.733522 0.798499
P_10 0.692820 0.683063 0.617443 0.638627 0.568385 0.566467
P_10 0.500553 0.538950 0.524446 0.503652 0.535656 0.535048
P_10 0.610630 0.634263 0.749801 0.768754 0.789331 0.816750
P_10 0.973914 0.972837 1.091679 1.140540 1.041352 1.117033
P_10 1.122627 1.091972 1.045969 1.054848 1.094586 0.884129
P_10 0.963980 0.964166 0.863659 1.060732 1.050408 0.994401
P_10 1.021756 1.026957 1.140029 1.046488 1.043666 1.083389
P_10 1.092124 1.024573 1.023336 0.850581 0.742305 0.774790
P_10 0.665393 0.625655 0.528861 0.538330 0.470467 0.457980
P_10 0.515523 0.507181 0.528098 0.609661 0.613977 0.665126
P_10 0.837595 0.779968 1.000968 1.126482 1.056189 1.196918
P_10 1.233643 1.430757 1.270349 1.374021 1.285310 1.279661
P_10 1.179093 1.202427 1.057405 1.101251 0.961821 1.073046
P_10 0.877097 0.914558 0.941589 0.936747 0.974570 1.013797
P_10 0.925090 0.992348 1.125245 1.214799 1.133094 1.122827
P_10 1.125186 1.138767 0.906112 1.032504 0.889180 0.817082
P_10 0.663749 0.679719 0.594622 0.541641 0.451180 0.464944
P_10 0.473521 0.521150 0.539320 0.643043 0.653102 0.671851
P_10 0.759481 0.830252 1.027040 1.151115 1.145996 1.157021
P_10 1.179523 1.253341 1.312064 1.178223 1.319779 1.223129
P_10 1.224640 1.205462 1.118714 1.052849 0.932327 0.990241
P_10 0.992066 1.089899 0.973614 0.988876 1.080816 1.064980
P_10 1.043448 1.005696 1.105605 1.128947 1.128416 1.222969
P_10 1.148025 1.060996 1.024196 0.897285 0.886981 0.806485
P_10 0.680598 0.703991 0.614311 0.510342 0.514641 0.503488
P_10 0.475947 0.515421 0.579044 0.661307 0.637729 0.820102
P_10 0.879959 0.898644 0.959392 1.070055 1.122108 1.143046
P_10 1.237860 1.259227 1.275434 1.359304 1.259502 1.308552
P_10 1.164801 1.096302 1.022865 1.115098 1.108869 1.058253
P_10 1.014185 1.001445 1.055418 0.968029 0.986911 1.026721
P_10 1.147593 1.109922 1.217623 1.202786 1.219352 1.160637
P_10 1.060396 1.089165 1.052867 0.961060 0.882785 0.779322
P_10 0.804943 0.684021 0.592229 0.600590 0.518565 0.485500
P_10 0.480470 0.539421 0.592700 0.642770 0.767453 0.817248
P_10 0.947012 1.000287 1.036558 1.116181 1.193047 1.226929
P_10 1.147528 1.202312 1.351488 1.198734 1.275856 1.098978
P_10 1.086528 1.100896 1.100755 1.042185 0.995054 1.045664
P_10 0.971622 1.039920 1.008391 1.075068 1.166971 1.053311
P_10 1.061578 0.966767 1.192485 1.111122 1.134179 1.135528
P_10 1.105412 1.032276 0.957075 0.961269 0.879352 0.830064
P_10 0.744195 0.669360 0.602210 0.579502 0.540257 0.487037
P_10 0.559114 0.533696 0.574482 0.662925 0.699106 0.904567
P_10 0.924434 1.025873 1.165448 1.279446 1.321773 1.451586
P_10 1.318781 1.380600 1.468229 1.265708 1.342727 1.400883
P_10 1.232471 1.172611 1.195721 1.015687 1.077182 1.195368
P_10 1.051811 1.114440 1.078388 1.022441 1.145751 1.060387
P_10 1.008937 1.111246 1.187490 1.141712 1.095888 1.156692
P_10 1.156007 0.982456 1.027990 0.944172 0.836638 0.803791
P_10 0.792667 0.743311 0.650360 0.626644 0.638708 0.509918
P_10 0.528798 0.537630 0.591416 0.567309 0.617580 0.626251
P_10 0.799395 0.876965 0.885831 0.996925 0.998825 1.023484
P_10 1.199878 1.094847 1.250381 1.180934 1.188970 1.086276
P_10 1.144997 1.208149 1.069842 1.195541 1.066028 1.110059
P_10 1.035544 1.165820 1.022555 1.161789 1.058567 1.115860
P_10 1.130640 1.144897 1.084218 1.111134 1.086634 1.111552
P_10 0.965173 1.026173 0.848964 0.847781 0.783671 0.746987
P_10 0.699463 0.669991 0.689344 0.623152 0.544719 0.548404
P_10 0.512312 0.480166 0.575850 0.545885 0.554867 0.566897
P_10 0.700992 0.669542 0.694918 0.792801 0.840871 0.926986
P_10 1.018402 1.070229 1.022558 1.151339 1.167237 1.126924
P_10 1.104849 1.129949 1.164235 1.117660 1.043133 0.930338
P_10 1.018544 1.041662 0.971255 0.865227 0.952483 0.968823
P_10 1.076882 1.056382 1.089289 0.965816 1.021254 1.057522
P_10 1.029881 0.988266 0.972376 0.915229 0.813042 0.766338
P_10 0.717294 0.696337 0.537398 0.573523 0.475181 0.471377
P_10 0.459931 0.526984 0.497947 0.581107 0.687459 0.773350
P_10 0.843960 0.849432 1.043183 1.112096 1.276217 1.321672
P_10 1.210210 1.368931 1.397265 1.372560 1.199256 1.314123
P_10 1.289141 1.387223 1.161663 0.979379 1.038265 1.071279
P_10 0.975270 0.934830 0.908802 1.033764 0.991517 1.005644
P_10 1.091206 1.082627 1.058483 1.127676 1.056051 1.081927
P_10 1.099328 1.166649 1.059958 0.978740 0.969710 0.870405
P_10 0.710410 0.696434 0.641733 0.538249 0.538816 0.501487
P_10 0.501034 0.543172 0.607031 0.602661 0.649010 0.723491
P_10 0.899443 0.905420 1.012751 1.011906 1.189219 1.191754
P_10 1.313763 1.266309 1.289354 1.201026 1.228163 1.214531
P_10 1.180852 1.162955 1.144142 1.001048 1.096639 1.039710
P_10 1.035672 0.979603 0.920388 1.019825 0.951765 1.101471
P_10 1.088312 1.217770 1.164914 1.175866 1.221907 1.181119
P_10 1.136344 1.241561 0.981811 0.949762 0.879516 0.845364
P_10 0.766106 0.661254 0.586380 0.604823 0.499214 0.479460
P_10 0.511384 0.553498 0.569280 0.623182 0.687620 0.785352
P_10 0.975367 1.058297 1.064806 1.019968 1.220771 1.168053
P_10 1.252183 1.232360 1.237386 1.265776 1.287363 1.248836
P_10 1.221136 1.250530 1.118429 1.205504 1.052378 1.047970
P_10 1.082148 1.133201 1.116624 1.066024 1.078475 1.100885
P_10 1.064149 1.178697 1.143678 1.123622 1.272788 1.188604
P_10 1.086414 1.019122 0.957628 0.914474 0.865808 0.863192
P_10 0.807000 0.687459 0.649495 0.559644 0.547155 0.538883
P_10 0.497740 0.528939 0.559366 0.646167 0.753222 0.823691
P_10 0.856441 0.979865 1.038196 1.142141 1.216197 1.330242
P_10 1.339582 1.199435 1.208950 1.333503 1.355743 1.246384
P_10 1.106363 1.049604 1.113123 1.096911 1.074432 0.973798
P_10 0.945751 0.988097 1.036685 1.045382 1.125859 1.112731
P_10 1.142467 1.079810 1.102667 1.223506 1.213422 1.363256
P_10 1.102030 1.095110 0.971968 0.971521 0.882412 0.866768
P_10 0.727321 0.679635 0.614143 0.629830 0.569908 0.514242
P_10 0.536382 0.536521 0.610467 0.658060 0.790538 0.874176
P_10 0.987801 1.153435 1.165120 1.196431 1.390902 1.386546
P_10 1.629408 1.247530 1.447754 1.433342 1.390368 1.293393
P_10 1.281987 1.245839 1.225514 1.201110 1.061320 1.161666
P_10 1.153534 1.049521 1.015094 1.097193 1.072435 1.169688
P_10 1.111229 1.056823 1.169736 1.083337 1.202226 1.129519
P_10 1.053792 1.068440 1.006009 1.023777 0.893850 0.846376
P_10 0.837915 0.775033 0.704989 0.603614 0.574278 0.582681
P_10 0.533049 0.496158 0.514317 0.573259 0.635388 0.711208
P_10 0.808014 0.877823 0.864805 0.996253 1.027790 1.040407
P_10 1.184433 1.188153 1.175609 1.197485 1.247488 1.184836
P_10 1.163783 1.226276 1.322742 1.215189 1.102802 1.142845
P_10 1.105307 1.218403 1.221683 1.021633 1.183973 1.131897
P_10 1.218459 1.081151 1.083084 1.147949 1.056205 1.035196
P_10 0.899376 0.947697 0.902375 0.846948 0.824405 0.813980
P_10 0.760386 0.683918 0.652419 0.609929 0.588432 0.564616
P_10 0.534707 0.571188 0.508480 0.544121 0.539001 0.608159
P_10 0.669507 0.639531 0.693081 0.804148 0.865824 0.863799
P_10 1.053763 1.079470 0.993383 1.168690 1.113088 1.205250
P_10 1.190265 1.133089 1.141886 1.068017 0.968413 1.060235
P_10 0.996463 1.044627 0.959783 1.021266 0.929341 0.991940
P_10 1.182534 1.060208 1.045672 1.079926 1.123673 1.112593
P_10 1.078766 1.078422 0.908833 0.843447 0.858043 0.748592
P_10 0.754588 0.628203 0.603833 0.532570 0.526524 0.528810
P_10 0.468730 0.524360 0.510132 0.621777 0.646002 0.811499
P_10 0.747097 0.975970 1.045503 1.137142 1.210669 1.397473
P_10 1.330885 1.362075 1.368865 1.357024 1.349943 1.280131
P_10 1.230958 1.161190 1.114208 1.025882 1.099481 0.952906
P_10 0.977808 0.951806 0.989315 0.903989 1.039895 1.099952
P_10 1.130108 1.166157 1.142590 1.158015 1.177828 1.105446
P_10 1.219146 1.163940 1.026824 0.966323 0.909733 0.880803
P_10 0.808236 0.714105 0.630293 0.564798 0.507486 0.452074
P_10 0.501249 0.486718 0.574312 0.644957 0.716618 0.725174
P_10 0.847437 0.900685 1.124823 1.171021 1.209273 1.225307
P_10 1.343520 1.356088 1.312923 1.284851 1.310906 1.227101
P_10 1.302257 1.213722 1.090269 1.083929 1.027560 1.056772
P_10 0.970628 0.995344 0.981664 1.040079 1.020110 1.231592
P_10 1.224630 1.143435 1.147961 1.212012 1.309481 1.181332
P_10 1.197447 1.108883 1.066709 0.982327 0.902655 0.823292
P_10 0.715076 0.655741 0.639858 0.538087 0.429160 0.465658
P_10 0.472374 0.580637 0.610524 0.673680 0.731733 0.850545
P_10 0.967113 1.005124 1.010504 1.044368 1.122017 1.281835
P_10 1.343264 1.276801 1.274998 1.393907 1.336487 1.268145
P_10 1.323463 1.206929 1.238408 1.275270 1.158180 1.253097
P_10 0.983194 1.154535 1.109539 0.976820 1.112660 1.087272
P_10 1.193767 1.224338 1.236852 1.216947 1.279852 1.164028
P_10 1.141129 1.068039 0.980166 1.024392 0.860887 0.877622
P_10 0.826873 0.713721 0.648756 0.568142 0.591866 0.492151
P_10 0.550715 0.567868 0.607666 0.646202 0.706766 0.814437
P_10 0.911268 0.937694 1.172767 1.239309 1.219766 1.248064
P_10 1.166361 1.356167 1.185589 1.362976 1.234576 1.293541
P_10 1.119883 1.205185 1.139054 1.040282 1.110436 1.173848
P_10 1.006542 1.139230 1.028398 1.096932 1.115555 1.042719
P_10 1.095003 1.196305 1.112304 1.166777 1.296635 1.190707
P_10 1.262045 1.180392 0.997168 1.040795 0.944748 0.857286
P_10 0.746264 0.676533 0.624035 0.601371 0.564431 0.557290
P_10 0.531355 0.565256 0.660545 0.710614 0.758650 0.839145
P_10 1.005510 1.082259 1.246769 1.196396 1.428033 1.333049
P_10 1.529308 1.571646 1.414901 1.422077 1.383061 1.536224
P_10 1.266015 1.273075 1.226641 1.192780 1.275311 1.143602
P_10 1.073531 1.154133 1.042408 1.203408 1.160961 1.248410
P_10 1.177406 1.205658 1.203302 1.188649 1.146598 1.103179
P_10 1.096537 1.008885 1.027167 0.964302 0.923180 0.856863
P_10 0.846558 0.787468 0.693771 0.684619 0.621763 0.604891
P_10 0.591515 0.556648 0.599673 0.597562 0.675962 0.684779
P_10 0.749387 0.800871 0.879066 1.070921 1.027599 1.021707
P_10 1.111773 1.267958 1.230047 1.186609 1.196347 1.213023
P_10 1.127684 1.121872 1.193053 1.109058 1.158064 1.164998
P_10 1.231724 1.056085 1.189608 1.194839 1.135186 1.182145
P_10 1.102918 1.212247 1.107578 1.134603 1.068556 1.027874
P_10 1.044336 1.011217 0.938622 0.877121 0.828204 0.848213
P_10 0.769022 0.723208 0.637077 0.665825 0.595744 0.570344
P_10 0.588821 0.566446 0.569094 0.592273 0.553054 0.595031
P_10 0.635644 0.663024 0.731197 0.824460 0.841085 0.928306
P_10 0.978980 0.932302 1.166673 1.134432 1.183760 1.178237
P_10 1.193480 1.235219 1.092458 1.139465 1.242910 1.084429
P_10 1.049800 0.987621 1.086031 1.067341 1.059017 1.033460
P_10 1.002684 1.068844 1.094808 1.089393 1.162084 1.082501
P_10 1.043608 0.968732 1.015523 0.889896 0.864073 0.752150
P_10 0.699637 0.656160 0.617893 0.549182 0.550228 0.487207
P_10 0.525539 0.504579 0.572398 0.588055 0.637636 0.750152
P_10 0.944400 0.970772 1.006149 1.129548 1.224905 1.300496
P_10 1.288372 1.298076 1.451897 1.341086 1.383940 1.236223
P_10 1.316025 1.251841 1.041057 1.176470 1.196581 0.882718
P_10 0.935949 0.896506 1.023712 1.025645 1.142803 1.090895
P_10 1.003906 1.097546 1.208940 1.083946 1.053657 1.137370
P_10 1.123050 1.224050 1.103625 0.982519 0.980831 0.819090
P_10 0.706394 0.663069 0.624582 0.532563 0.561683 0.558077
P_10 0.504184 0.544332 0.592514 0.691173 0.722034 0.702712
P_10 0.886034 0.933490 1.003982 1.089519 1.166274 1.246620
P_10 1.469669 1.208501 1.453934 1.363784 1.303239 1.285239
P_10 1.191247 1.271723 1.223686 1.095776 1.107524 1.022252
P_10 1.055817 0.992781 0.972273 1.023093 1.095318 1.172754
P_10 1.148593 1.210404 1.267940 1.191005 1.328899 1.303879
P_10 1.127871 1.142680 1.000985 1.031189 0.892183 0.832881
P_10 0.845008 0.636770 0.574095 0.567768 0.559676 0.586439
P_10 0.530776 0.561798 0.622712 0.703240 0.736137 0.862569
P_10 0.963340 0.985119 1.183529 1.187407 1.145635 1.332578
P_10 1.190616 1.334225 1.374349 1.322773 1.306852 1.190804
P_10 1.371640 1.249870 1.099287 1.152267 1.234251 1.052947
P_10 1.143675 1.020332 1.137255 1.109424 1.149610 1.154246
P_10 1.177764 1.213526 1.169553 1.175583 1.189298 1.267183
P_10 1.163755 1.270012 1.115131 0.971615 0.931889 0.907232
P_10 0.801282 0.690307 0.616921 0.553529 0.563170 0.529886
P_10 0.567126 0.514340 0.671383 0.670121 0.784685 0.840808
P_10 0.956072 1.139556 1.140288 1.281450 1.235051 1.408072
P_10 1.297843 1.321651 1.340762 1.310442 1.340824 1.297762
P_10 1.266138 1.151777 1.185295 1.123120 1.142927 1.239652
P_10 1.060198 0.970424 1.017929 1.017035 1.129668 1.153746
P_10 1.228068 1.194313 1.205522 1.211844 1.214704 1.313670
P_10 1.188858 1.166535 1.003821 1.110385 0.954126 0.847479
P_10 0.731448 0.695784 0.644431 0.598635 0.566689 0.596964
P_10 0.543136 0.588937 0.662454 0.713115 0.829643 0.942467
P_10 1.013287 1.144051 1.243043 1.355811 1.246195 1.377329
P_10 1.410624 1.523427 1.443474 1.525805 1.354582 1.275488
P_10 1.340861 1.225961 1.260359 1.212579 1.171090 1.116348
P_10 1.197225 1.081279 1.125903 1.138368 1.181457 1.105886
P_10 1.219921 1.207032 1.235303 1.187223 1.312228 1.212257
P_10 1.140670 1.075465 0.966730 1.016271 0.926339 0.908862
P_10 0.855139 0.802064 0.689354 0.697296 0.618752 0.574868