; Filename: networks/Net1.inp
; WNTR: 0.1.6
; Created: 2019-04-09 13:12:43
[TITLE]
EPANET Example Network 1
A simple example of modeling chlorine decay. Both bulk and
wall reactions are included.

[JUNCTIONS]
;ID                      Elevation       Demand Pattern                 
 10                               710               0                            ;
 11                               710               0                            ;
 12                               700               0                            ;
 13                               695               0                            ;
 21                               700               0                            ;
 22                               695               0                            ;
 23                               690               0                            ;
 31                               700               0                            ;
 32                               710               0                            ;

[RESERVOIRS]
;ID                                   Head                  Pattern
 9                                800                            ;

[TANKS]
;ID                              Elevation           Init Level            Min Level            Max Level             Diameter           Min Volume Volume Curve        
 2                                850             120             100             150            50.5               0                        ;

[PIPES]
;ID                   Node1                Node2                              Length             Diameter            Roughness           Minor Loss               Status
 10                   10                   11                             10530              18             100               0                 Open   ;
 11                   11                   12                              5280              14             100               0                 Open   ;
 12                   12                   13                              5280              10             100               0                 Open   ;
 21                   21                   22                              5280              10             100               0                 Open   ;
 22                   22                   23                              5280              12             100               0                 Open   ;
 31                   31                   32                              5280               6             100               0                 Open   ;
 110                  2                    12                               200              18             100               0                 Open   ;
 111                  11                   21                              5280              10             100               0                 Open   ;
 112                  12                   22                              5280              12             100               0                 Open   ;
 113                  13                   23                              5280               8             100               0                 Open   ;
 121                  21                   31                              5280               8             100               0                 Open   ;
 122                  22                   32                              5280               6             100               0                 Open   ;

[PUMPS]
;ID                   Node1                Node2                Properties          
 9                    9                    10                   HEAD     1                      ;

[VALVES]
;ID                   Node1                Node2                            Diameter Type              Setting           Minor Loss

[TAGS]
;type      name       tag       

[DEMANDS]
;ID        Demand     Pattern   
10         0.0        P_10      
11         150.0      P_11      
12         150.0      P_12      
13         100.0      P_13      
21         150.0      P_21      
22         200.0      P_22      
23         150.0      P_23      
31         100.0      P_31      
32         100.0      P_32      

[STATUS]
;ID        Setting   
[PATTERNS]
;ID        Multipliers

1 1.000000 1.200000 1.400000 1.600000 1.400000 1.200000
1 1.000000 0.800000 0.600000 0.400000 0.600000 0.800000

P_10 0.652280 0.544055 0.544582 0.468802 0.438558 0.410866
P_10 0.397390 0.423087 0.483281 0.514665 0.609350 0.679642
P_10 0.807138 0.840275 0.890499 0.981453 1.070561 1.154152
P_10 1.136773 1.241022 1.231612 1.293563 1.260653 1.282492
P_10 1.152516 1.153644 1.172236 1.014710 0.978073 0.923284
P_10 0.890345 0.950399 0.875783 0.911539 0.974383 1.022446
P_10 1.033148 1.024437 0.941107 1.008990 1.051989 0.995984
P_10 1.063226 1.100940 0.973161 0.836888 0.857553 0.748614
P_10 0.717105 0.581908 0.508572 0.481431 0.452022 0.457706
P_10 0.390709 0.445392 0.469578 0.525140 0.585363 0.636408
P_10 0.703235 0.855237 0.938340 1.068724 1.045848 1.075387
P_10 1.139266 1.101979 1.145556 1.137491 1.227654 1.200539
P_10 1.019519 0.924901 0.971882 1.038815 0.969954 0.880151
P_10 0.902030 0.917732 0.906371 0.941110 0.898927 0.932083
P_10 0.870157 1.088616 1.035838 1.116568 1.136641 1.053665
P_10 1.062154 0.977005 1.027439 0.867477 0.765036 0.767800
P_10 0.657949 0.589898 0.581388 0.442538 0.425180 0.432183
P_10 0.435149 0.431468 0.461339 0.562040 0.627522 0.646396
P_10 0.813373 0.834500 0.945042 1.053037 1.073741 1.122573
P_10 1.118457 1.133985 1.198056 1.217938 1.129015 1.167569
P_10 1.148550 1.076509 1.149877 1.181249 1.125951 0.969099
P_10 0.989847 1.008573 0.978494 0.965759 1.095838 0.979951
P_10 1.069272 1.014045 0.979772 1.046666 1.105972 1.102205
P_10 1.081905 1.061654 0.952064 0.834217 0.831165 0.767414
P_10 0.732737 0.678653 0.539504 0.502115 0.426121 0.481592
P_10 0.473074 0.452265 0.507333 0.519946 0.583967 0.771404
P_10 0.826419 0.841771 1.056699 0.894989 1.106727 1.101276
P_10 1.183030 1.216176 1.121334 1.198350 1.253867 1.228806
P_10 1.121255 1.120575 0.982334 1.059186 0.970160 0.890795
P_10 1.002409 1.023859 1.066730 0.896495 1.048130 1.011179
P_10 1.030896 0.990589 1.075017 1.086301 1.038401 1.132140
P_10 1.073611 1.039010 0.963788 0.912154 0.838026 0.742881
P_10 0.723549 0.646863 0.550190 0.507492 0.464487 0.438436
P_10 0.448078 0.479789 0.523581 0.581496 0.720041 0.781990
P_10 0.846652 0.953664 0.971812 1.141510 1.242260 1.331535
P_10 1.343692 1.411077 1.418832 1.234858 1.390583 1.313524
P_10 1.194302 1.062146 1.117161 1.119544 1.040956 1.043968
P_10 0.984244 1.046188 1.020395 1.100874 1.029995 1.023169
P_10 1.124193 1.113748 1.135697 1.060548 1.011333 1.003820
P_10 0.978484 0.925661 0.969511 0.841154 0.877299 0.832355
P_10 0.657940 0.738858 0.582475 0.510912 0.596423 0.508368
P_10 0.492961 0.464378 0.449829 0.484398 0.572499 0.551579
P_10 0.662180 0.731205 0.732683 0.908517 1.002911 0.982174
P_10 1.058632 1.046883 1.122662 1.181666 1.206711 1.096650
P_10 1.104576 1.181186 1.118855 1.127413 1.002194 1.072978
P_10 0.940748 1.023023 0.997776 1.073367 1.038011 1.018244
P_10 0.975208 0.962014 1.003699 1.030422 0.960071 0.964069
P_10 0.929453 0.809057 0.878640 0.785525 0.758323 0.666369
P_10 0.620837 0.629010 0.587845 0.553224 0.522934 0.456838
P_10 0.495524 0.453230 0.398877 0.483572 0.499274 0.510961
P_10 0.527134 0.581289 0.692916 0.647219 0.788747 0.806439
P_10 0.883860 0.786845 0.997320 0.973952 1.086086 1.057253
P_10 1.025567 1.000731 1.046454 1.000241 0.958410 1.004943
P_10 0.966462 0.982305 0.956873 1.015885 0.913304 0.881051
P_10 0.998950 0.992184 1.018190 0.913655 1.040118 1.018510
P_10 1.024707 0.975477 0.852032 0.852554 0.826579 0.709341
P_10 0.601141 0.600084 0.520123 0.499385 0.424106 0.394032
P_10 0.416016 0.430938 0.435451 0.494645 0.547806 0.639470
P_10 0.772862 0.790246 0.912072 1.003614 1.024487 1.097638
P_10 1.177438 1.166085 1.254022 1.121924 1.329098 1.380362
P_10 1.234917 1.165531 1.094963 1.016778 0.947211 0.981607
P_10 0.853228 0.952552 0.891177 0.874315 0.956489 0.963522
P_10 0.992805 0.994526 0.938276 1.125513 1.145562 1.100317
P_10 1.111592 0.953268 1.014117 0.997853 0.883440 0.766524
P_10 0.661291 0.579159 0.557598 0.493908 0.488741 0.430867
P_10 0.395479 0.479902 0.464361 0.552303 0.654912 0.672351
P_10 0.722448 0.804598 0.910627 0.960288 1.045518 1.083744
P_10 1.205599 1.276700 1.181322 1.198162 1.121617 1.203039
P_10 1.137970 1.077760 1.074702 0.950247 1.015613 1.003577
P_10 1.019128 0.986098 0.918258 0.943143 0.997007 1.007737
P_10 1.025177 1.090632 1.012806 1.086722 1.190608 1.016581
P_10 1.191209 0.996028 0.927875 1.002104 0.886278 0.712338
P_10 0.718065 0.556939 0.516429 0.475083 0.425838 0.405513
P_10 0.450185 0.485137 0.505736 0.541217 0.609585 0.705703
P_10 0.775604 0.840124 0.959995 1.001966 1.025749 1.115707
P_10 1.137363 1.180380 1.241276 1.302991 1.180685 1.113766
P_10 1.108050 1.204653 1.144117 1.088620 1.059234 1.082981
P_10 1.038741 0.980519 0.895917 1.030852 1.029723 1.021505
P_10 1.153064 1.070230 1.189117 1.141239 1.121232 1.043603
P_10 1.036543 1.017272 0.970716 0.978764 0.807583 0.798632
P_10 0.697664 0.606090 0.561472 0.493433 0.437849 0.432351
P_10 0.437279 0.473087 0.530727 0.517511 0.686216 0.692289
P_10 0.755040 0.861923 0.949108 1.009767 1.100572 1.239832
P_10 1.197584 1.178729 1.258222 1.153810 1.241426 1.161556
P_10 1.144871 1.031964 1.087529 0.994082 0.931702 0.939512
P_10 0.953152 0.942257 1.003739 0.966012 1.055258 0.951378
P_10 1.008963 1.090508 1.142056 1.112667 1.144897 0.995681
P_10 0.947331 1.048361 0.960733 0.840998 0.888901 0.759982
P_10 0.722909 0.673194 0.547375 0.517646 0.481194 0.490628
P_10 0.457620 0.477132 0.505589 0.546574 0.683758 0.819432
P_10 0.878648 0.985356 1.095635 1.070159 1.193301 1.299794
P_10 1.261949 1.341776 1.381927 1.271717 1.318462 1.290786
P_10 1.260708 1.113906 1.087827 1.130762 1.132977 1.115493
P_10 1.017974 1.106739 1.036432 0.997812 1.078958 1.026301
P_10 1.036021 1.139106 1.073931 1.088204 1.042098 1.072344
P_10 0.995921 0.962910 0.876696 0.875450 0.870238 0.840301
P_10 0.749971 0.702395 0.644556 0.489007 0.548276 0.487281
P_10 0.538729 0.494071 0.433499 0.503403 0.580351 0.603077
P_10 0.664697 0.737702 0.766108 0.827868 0.999453 1.033426
P_10 1.141671 1.187908 1.061536 1.102209 1.215355 1.130589
P_10 1.200439 1.087121 1.210591 1.120773 1.120552 1.012553
P_10 1.136056 1.180737 1.037307 1.049753 1.037876 0.985643
P_10 1.027427 1.048233 1.050189 0.978948 0.975695 1.006017
P_10 0.853316 0.893759 0.901684 0.799440 0.692004 0.611220
P_10 0.649533 0.613675 0.604857 0.572260 0.522983 0.526740
P_10 0.458081 0.475106 0.482877 0.428726 0.482638 0.550231
P_10 0.524538 0.590122 0.660907 0.691361 0.802362 0.846204
P_10 0.899767 0.882867 0.947314 0.972892 1.124248 1.062503
P_10 1.128529 1.010885 1.010280 0.965053 0.935288 0.925492
P_10 1.003427 0.936746 0.944682 0.943616 0.926301 0.926274
P_10 0.952111 0.981010 1.029381 1.010988 1.071747 1.036064
P_10 0.945995 0.927088 0.891034 0.865671 0.799684 0.735613
P_10 0.649991 0.586066 0.529315 0.509522 0.408070 0.447134
P_10 0.419689 0.469990 0.495052 0.512156 0.601732 0.695143
P_10 0.797135 0.783396 0.858843 0.916118 1.120057 1.052102
P_10 1.161180 1.123105 1.138714 1.192211 1.275857 1.223552
P_10 1.227068 1.225539 1.128421 0.963174 0.984947 1.036475
P_10 0.969172 0.928117 0.877110 0.834801 0.869479 0.886209
P_10 1.078677 0.880029 1.103051 1.053325 1.085893 1.218036
P_10 1.034610 1.061510 1.080181 0.967601 0.819692 0.708934
P_10 0.654026 0.567006 0.562724 0.507112 0.451289 0.440295
P_10 0.442314 0.430030 0.515053 0.541598 0.593997 0.654055
P_10 0.715178 0.904264 0.929153 1.067518 1.038262 1.164260
P_10 1.228862 1.171843 1.241097 1.159201 1.323592 1.310694
P_10 1.209706 1.064257 1.041252 1.068279 1.036917 1.058662
P_10 0.994749 0.955968 0.915513 0.976310 1.033648 1.109293
P_10 1.021748 1.087783 1.048928 1.212273 0.964699 1.187637
P_10 1.150742 1.064139 0.944361 0.940710 0.892605 0.778185
P_10 0.701300 0.604982 0.569112 0.503395 0.447559 0.407471
P_10 0.423771 0.463260 0.516174 0.550798 0.678687 0.706207
P_10 0.811385 0.850604 0.948905 1.113468 1.056103 1.098526
P_10 1.163854 1.209565 1.341577 1.264042 1.261790 1.147438
P_10 1.232918 1.129845 1.203258 1.087885 1.048734 1.060342
P_10 1.074352 0.994169 1.000353 1.066348 1.072004 1.151277
P_10 1.087756 1.026742 1.120258 1.129620 1.145677 1.186622
P_10 1.145247 1.106066 1.084251 0.938084 0.875880 0.868799
P_10 0.768623 0.654750 0.571011 0.513432 0.473831 0.444799
P_10 0.444367 0.480647 0.488900 0.564050 0.619767 0.692179
P_10 0.788888 0.919468 1.042720 1.088912 1.100368 1.189020
P_10 1.247780 1.240865 1.067293 1.215696 1.142007 1.043602
P_10 0.948313 1.096294 1.084725 1.027660 1.002703 1.013895
P_10 0.971692 1.046727 1.057143 0.939533 1.017889 1.002365
P_10 1.092705 1.042961 1.106259 1.151785 1.176817 1.084069
P_10 1.071937 0.957497 1.026969 0.953441 0.870991 0.771115
P_10 0.762784 0.658828 0.558782 0.543823 0.476066 0.483745
P_10 0.505106 0.488114 0.561593 0.689417 0.675024 0.863856
P_10 0.969497 0.965487 1.109412 1.267243 1.145072 1.276126
P_10 1.389557 1.348112 1.518672 1.326721 1.335018 1.212027
P_10 1.194424 1.167240 1.139803 1.087647 1.151059 1.030382
P_10 1.127342 1.099952 1.093925 1.054356 1.059688 1.073539
P_10 1.107881 1.124683 1.161369 1.121799 1.044492 1.080404
P_10 0.978415 1.013234 0.890159 0.916020 0.922047 0.794994
P_10 0.726899 0.722416 0.733792 0.564491 0.487491 0.475680
P_10 0.544635 0.475119 0.434567 0.481179 0.513319 0.593180
P_10 0.681927 0.751838 0.763958 0.906860 0.979158 1.098184
P_10 1.020087 1.072426 1.181077 1.182601 1.179793 1.088411
P_10 1.069117 1.178457 1.145340 1.094325 1.106306 1.111811
P_10 1.098284 1.135485 1.076246 1.039618 1.162818 1.054421
P_10 1.173322 1.099818 1.043558 1.049705 1.013652 0.976874
P_10 0.895538 0.906060 0.914076 0.874715 0.797071 0.690709
P_10 0.679411 0.689937 0.600228 0.545094 0.557203 0.530123
P_10 0.515814 0.491684 0.497808 0.479883 0.464032 0.499897
P_10 0.548930 0.613467 0.684886 0.774542 0.739527 0.868419
P_10 1.029260 0.919570 1.002968 1.101449 1.116564 0.999669
P_10 1.059862 1.115701 1.117909 0.956249 1.044633 0.992835
P_10 0.951891 1.036695 0.882772 0.927579 0.998359 0.993743
P_10 0.981126 1.100794 1.121213 1.068517 1.056721 1.113535
P_10 1.095483 1.014199 0.906116 0.838096 0.802509 0.717230
P_10 0.717510 0.662166 0.579315 0.520135 0.450909 0.388710
P_10 0.414562 0.461320 0.502373 0.505242 0.626818 0.679217
P_10 0.775186 0.941915 0.987141 0.965996 1.081177 1.229836
P_10 1.254069 1.261983 1.255835 1.358851 1.226977 1.253714
P_10 1.245958 1.187691 1.150447 1.110952 1.171534 1.036073
P_10 0.931336 0.994965 0.905972 0.998928 0.945257 0.964458
P_10 1.004024 1.077515 1.141690 1.233596 1.207301 1.203232
P_10 1.203412 1.070991 1.024678 0.948128 0.896740 0.810697
P_10 0.659130 0.693687 0.563906 0.494407 0.463931 0.418842
P_10 0.472311 0.446198 0.504524 0.543090 0.585956 0.689179
P_10 0.862289 0.820546 0.961584 0.963550 0.936030 1.183168
P_10 1.200553 1.184012 1.219308 1.288661 1.210213 1.190813
P_10 1.258115 1.154514 1.113482 1.082164 1.105562 1.009202
P_10 0.984520 0.951850 0.992274 1.068332 1.045060 1.054134
P_10 1.127845 1.157991 1.166561 1.242752 1.135374 1.184140
P_10 1.257904 1.083820 0.966398 0.950829 0.850803 0.761545
P_10 0.719687 0.619019 0.583175 0.528257 0.427012 0.496347
P_10 0.473799 0.495460 0.536117 0.551524 0.697842 0.714745
P_10 0.851937 0.865021 0.936572 1.041147 1.062040 1.187564
P_10 1.181010 1.279185 1.287746 1.215689 1.216625 1.250721
P_10 1.232517 1.135994 1.210506 1.146862 1.045076 1.070168
P_10 1.056096 1.039210 0.955950 1.063640 1.087172 1.159751
P_10 1.072037 1.155203 1.162029 1.025859 1.135644 1.157039
P_10 1.145426 1.122543 1.089459 1.021636 0.885740 0.794419
P_10 0.732286 0.641983 0.538513 0.523134 0.444338 0.432797
P_10 0.491751 0.479719 0.535918 0.585711 0.660406 0.745077
P_10 0.841507 0.962511 1.000206 1.086576 1.214875 1.252204
P_10 1.237078 1.264567 1.166819 1.237823 1.227045 1.132378
P_10 1.109031 1.058559 1.059969 1.069944 1.000164 1.057079
P_10 1.047845 1.043154 1.104457 1.081726 1.136806 1.119333
P_10 1.051852 1.112360 1.213907 1.205226 1.165164 1.069425
P_10 1.209137 1.044442 1.085426 0.937338 0.836162 0.779028
P_10 0.733735 0.712610 0.577398 0.552025 0.459768 0.464793
P_10 0.485933 0.467764 0.584535 0.630485 0.753625 0.742954
P_10 0.825847 1.078267 1.095320 1.198818 1.270148 1.391663
P_10 1.334138 1.331049 1.280040 1.269091 1.337966 1.326800
P_10 1.367673 1.161443 1.167536 1.178322 1.153370 1.067164
P_10 1.088490 1.048423 1.005671 1.060099 1.031264 1.218003
P_10 1.044153 1.138415 1.185025 1.089292 1.186537 1.133063
P_10 1.015418 1.020471 0.951237 0.962447 0.936231 0.872283
P_10 0.783533 0.691674 0.619838 0.598642 0.564822 0.497654
P_10 0.496471 0.510439 0.531583 0.505762 0.561651 0.611933
P_10 0.690152 0.756234 0.846688 0.926355 0.994237 1.051949
P_10 1.190743 1.166804 1.125231 1.214130 1.310514 1.291535
P_10 1.093938 1.184643 1.181350 1.174202 1.044256 1.033629
P_10 1.130808 1.161683 1.117079 1.092646 1.207259 1.078744
P_10 1.111606 1.150106 1.097377 1.070462 1.125292 0.918416
P_10 0.976535 0.883547 0.809171 0.777483 0.831145 0.781074
P_10 0.737104 0.686363 0.614744 0.551386 0.554678 0.545246
P_10 0.535235 0.490802 0.490235 0.528747 0.527200 0.576282
P_10 0.566954 0.611974 0.684661 0.749101 0.786885 0.933551
P_10 0.950067 1.053994 1.109878 1.104906 1.037411 1.035112
P_10 1.149651 1.173500 1.093457 1.066072 1.066008 0.990801
P_10 0.994365 0.949622 1.000476 0.965670 0.992135 1.055620
P_10 0.950022 1.079240 1.110416 1.064447 1.107262 1.131231
P_10 1.086817 1.051786 0.962003 0.896222 0.733644 0.698849
P_10 0.682423 0.616492 0.527191 0.505950 0.484698 0.471905
P_10 0.466720 0.444781 0.513739 0.529044 0.658085 0.675186
P_10 0.713049 0.852934 0.913028 0.953105 1.083531 1.255638
P_10 1.472785 1.341311 1.292704 1.404388 1.336233 1.356418
P_10 1.160252 1.177631 1.168800 0.965104 1.116124 1.060374
P_10 0.985903 0.986126 0.902172 0.936844 1.054214 0.973444
P_10 1.015756 1.107960 1.094833 1.123470 1.197196 1.055338
P_10 1.135383 1.008273 1.087979 0.932451 0.834469 0.789215
P_10 0.674739 0.665133 0.583097 0.540756 0.443086 0.487767
P_10 0.437120 0.503722 0.566129 0.540295 0.664827 0.661387
P_10 0.779144 0.944034 1.063121 1.068410 1.006898 1.176080
P_10 1.259356 1.257623 1.260748 1.321077 1.329071 1.310677
P_10 1.228040 1.187980 1.150445 1.106615 1.048861 0.966206
P_10 1.055141 0.963618 0.990765 1.001706 1.067768 1.073085
P_10 1.103920 1.242227 1.133840 1.199161 1.175781 1.209543
P_10 1.193641 1.077304 1.078949 0.912973 0.901889 0.778562
P_10 0.810805 0.633667 0.643111 0.497245 0.485786 0.409382
P_10 0.446268 0.457821 0.589245 0.577086 0.640148 0.717503
P_10 0.830399 0.931693 0.999230 1.019347 1.122841 1.205333
P_10 1.167816 1.254905 1.300056 1.337245 1.307389 1.148996
P_10 1.303771 1.263438 1.163101 1.145054 1.085256 1.203790
P_10 1.081256 1.122644 1.062498 0.986600 1.036896 1.153795
P_10 1.181296 1.156571 1.128803 1.256528 1.133011 1.122793
P_10 0.982112 1.071903 1.059444 1.046874 0.889846 0.889851
P_10 0.744937 0.667545 0.569155 0.548515 0.457261 0.467022
P_10 0.475383 0.468324 0.495937 0.679089 0.655637 0.688497
P_10 0.815754 0.943464 0.988163 1.074007 1.186299 1.260016
P_10 1.245697 1.300363 1.231323 1.167654 1.250193 1.194890
P_10 1.149799 1.160647 1.091791 1.152386 1.126429 1.068681
P_10 1.038488 1.034112 1.008622 1.080520 1.067382 1.099987
P_10 1.143545 1.171420 1.231653 1.141175 1.203743 1.170736
P_10 1.206890 1.093121 1.087638 0.969255 0.971077 0.931059
P_10 0.674922 0.602854 0.558065 0.621435 0.529733 0.554786
P_10 0.458873 0.475175 0.625086 0.613310 0.734145 0.828189
P_10 0.949593 1.089003 1.173925 1.222532 1.265074 1.545777
P_10 1.459781 1.492568 1.410718 1.424972 1.394914 1.331827
P_10 1.269346 1.294732 1.103024 1.135555 1.148625 1.078483
P_10 1.126641 1.167951 1.149451 1.074753 1.127538 1.163000
P_10 1.131939 1.226668 1.176209 1.148418 1.123236 1.067141
P_10 0.988730 1.104811 0.981338 0.940722 0.899233 0.822249
P_10 0.759416 0.711416 0.684467 0.624960 0.592147 0.543991
P_10 0.491064 0.496176 0.562201 0.537463 0.593983 0.615455
P_10 0.705008 0.762126 0.823063 0.887598 1.016578 1.134866
P_10 1.182284 1.155721 1.200557 1.269379 1.302028 1.159445
P_10 1.211693 1.224801 1.161617 1.168338 1.196302 1.090806
P_10 1.134833 1.099532 1.166561 1.082193 1.191547 1.040136
P_10 1.155216 1.225989 1.022837 1.067389 1.082355 1.025205
P_10 1.030943 0.918020 0.836197 0.849318 0.785813 0.715806
P_10 0.686448 0.691426 0.597906 0.592186 0.583485 0.567343
P_10 0.549952 0.459394 0.501189 0.559816 0.527022 0.544645
P_10 0.579768 0.641329 0.758145 0.709287 0.790338 0.900589
P_10 0.991551 0.938996 1.071999 1.137581 1.027608 1.132678
P_10 1.116451 1.132354 1.201056 0.993005 1.065256 1.025599
P_10 1.017861 1.013747 0.988785 1.020184 0.993781 1.044633
P_10 1.066299 1.155775 1.160721 0.966720 1.067030 1.127118
P_10 1.103748 0.941531 1.025838 0.885671 0.873560 0.835799
P_10 0.676009 0.673925 0.521065 0.499985 0.467975 0.473048
P_10 0.460763 0.458717 0.555172 0.609708 0.603749 0.759725
P_10 0.805100 0.942667 1.041802 1.267115 1.181578 1.267663
P_10 1.349000 1.357009 1.269071 1.422296 1.376271 1.272126
P_10 1.282827 1.192027 1.162942 1.172735 1.129921 1.048231
P_10 0.941982 1.065100 0.860684 0.872229 1.009943 1.035579
P_10 1.029480 1.148617 1.151204 1.180571 1.217689 1.210501
P_10 1.194819 1.089259 1.061338 1.053819 0.930197 0.862106
P_10 0.736407 0.705487 0.591609 0.538421 0.497802 0.490698
P_10 0.500008 0.480806 0.499919 0.582415 0.636295 0.814386
P_10 0.820629 0.953576 1.000279 1.049199 1.133754 1.278499
P_10 1.093322 1.375380 1.280461 1.397349 1.298533 1.298452
P_10 1.215071 1.167639 1.199087 1.163658 1.110755 1.135669
P_10 1.062005 1.048380 1.057028 1.074826 1.028358 1.073268
P_10 1.136900 1.207621 1.276201 1.227501 1.299346 1.181524
P_10 1.206012 1.153221 1.169276 0.952658 0.890778 0.835386
P_10 0.743038 0.655388 0.551842 0.539401 0.508093 0.457331
P_10 0.445834 0.498911 0.521797 0.549599 0.749397 0.813700
P_10 0.808604 0.927753 1.050749 1.037454 1.165196 1.179028
P_10 1.294339 1.330509 1.306388 1.296837 1.228607 1.328891
P_10 1.260416 1.330744 1.156105 1.116291 1.048151 0.994576
P_10 1.121716 1.196054 1.107627 1.115513 1.155432 1.076838
P_10 1.164619 1.127205 1.140929 1.197110 1.218000 1.272963
P_10 1.054056 1.195889 0.986473 0.980222 0.960315 0.805406
P_10 0.794551 0.679781 0.573005 0.589730 0.537074 0.466750
P_10 0.530944 0.525707 0.578708 0.597928 0.657259 0.802336
P_10 0.839333 1.066023 1.029757 1.107271 1.230829 1.198552
P_10 1.327017 1.383429 1.220752 1.271268 1.277338 1.235835
P_10 1.245295 1.165543 1.035535 1.067652 1.087571 1.058989
P_10 1.060958 1.048382 1.097596 1.023390 1.204295 1.217555
P_10 1.107153 1.282948 1.235973 1.215277 1.229905 1.202835
P_10 1.175006 1.155029 1.182046 1.051537 1.034829 0.856646
P_10 0.788752 0.685279 0.667144 0.538397 0.517271 0.503630
P_10 0.516201 0.510961 0.571283 0.638790 0.696343 0.832668
P_10 0.957899 1.111314 1.121560 1.234960 1.275338 1.486871
P_10 1.527354 1.382408 1.467029 1.504066 1.363306 1.462036
P_10 1.281140 1.233346 1.257412 1.066454 1.203118 1.150196
P_10 1.113071 1.084828 1.109706 1.099729 1.116877 1.092867
P_10 1.214340 1.192016 1.179620 1.216955 1.133307 1.147616
P_10 1.075901 1.088670 1.042423 0.976353 0.950433 0.829724
P_10 0.825594 0.735387 0.759881 0.651401 0.581267 0.589590
P_10 0.510403 0.527851 0.568306 0.555406 0.586845 0.646187
P_10 0.706855 0.751680 0.832086 0.938842 0.991242 1.145572
P_10 1.265487 1.259565 1.200653 1.181656 1.408882 1.199878
P_10 1.244091 1.229782 1.241897 1.129331 1.252683 1.183774
P_10 1.143323 1.062191 1.112101 1.166924 1.257434 1.184103
P_10 1.114716 1.161514 1.216429 1.171353 1.033340 1.025585
P_10 1.005119 1.037036 0.928587 0.911182 0.804936 0.743018
P_10 0.706140 0.674247 0.655630 0.585437 0.566090 0.501252
P_10 0.488076 0.494974 0.543122 0.540015 0.546330 0.550547
P_10 0.634257 0.694834 0.733700 0.757538 0.820082 0.863179
P_10 0.945292 1.137916 1.034194 1.107926 1.236169 1.215901
P_10 1.135726 1.087704 1.119855 1.156899 1.093181 1.158467
P_10 1.016177 1.018004 1.033447 0.928274 1.015913 1.006013
P_10 1.085993 1.176691 1.262358 1.133195 1.099723 1.085774
P_10 1.087635 1.112463 1.024557 0.827421 0.798787 0.780363
P_10 0.630819 0.632326 0.568072 0.546775 0.521278 0.515568
P_10 0.500988 0.475557 0.511337 0.608320 0.630941 0.731559
P_10 0.826910 0.856465 1.102789 1.162578 1.143575 1.249416
P_10 1.336658 1.459045 1.460325 1.434954 1.426788 1.389150
P_10 1.243812 1.317555 1.218714 1.147162 1.098133 1.082016
P_10 0.996987 0.944253 1.040134 1.034188 1.039480 0.999888
P_10 1.047058 1.106631 1.233167 1.298956 1.226994 1.138987
P_10 1.189962 1.160540 1.091016 1.026317 0.916557 0.885657
P_10 0.728848 0.645831 0.634590 0.560371 0.514019 0.499674
P_10 0.473858 0.545744 0.553977 0.639839 0.650661 0.721296
P_10 0.764722 0.897333 1.118473 1.143118 1.188295 1.231892
P_10 1.331348 1.340807 1.348808 1.305967 1.294591 1.265581
P_10 1.224378 1.248057 1.123164 1.080778 1.138014 1.103750
P_10 1.071361 0.962403 1.193476 1.063419 1.103719 1.120724
P_10 1.220282 1.140318 1.246623 1.296284 1.235774 1.165101
P_10 1.147947 1.247612 1.144966 0.917678 1.018973 0.835418
P_10 0.776323 0.624326 0.594362 0.522600 0.460928 0.482676
P_10 0.485205 0.518624 0.535959 0.632966 0.715717 0.797652
P_10 0.888326 0.939340 1.043635 1.151700 1.182783 1.236627
P_10 1.260187 1.205712 1.410846 1.412232 1.347629 1.309098
P_10 1.320223 1.157032 1.238234 1.236268 1.164414 1.108136
P_10 1.143209 1.160807 1.032385 1.091995 1.108997 1.075957
P_10 1.120184 1.208602 1.254574 1.254779 1.219883 1.142575
P_10 1.068145 1.206362 1.172776 1.024140 0.891050 0.874464
P_10 0.785198 0.733005 0.633874 0.612486 0.502891 0.496960
P_10 0.496295 0.544639 0.588076 0.641974 0.719553 0.815257
P_10 0.927724 1.082348 1.080094 1.155750 1.264356 1.298758
P_10 1.249834 1.297183 1.431115 1.236613 1.285788 1.290069
P_10 1.321617 1.174611 1.215165 1.069508 1.095159 1.047655
P_10 1.097620 1.142402 1.161332 1.084122 1.148145 1.067809
P_10 1.201375 1.266063 1.315159 1.231369 1.233538 1.148456
P_10 1.151021 1.073681 1.215765 1.061411 0.953442 0.978578
P_10 0.823067 0.723842 0.646731 0.551404 0.581257 0.467006
P_10 0.483926 0.529592 0.611764 0.670225 0.785111 0.836682
P_10 0.930080 1.107788 1.230496 1.299844 1.383887 1.554935
P_10 1.394928 1.585079 1.525418 1.530868 1.365011 1.457281
P_10 1.335177 1.441719 1.300624 1.111040 1.107862 1.180467
P_10 1.134713 1.187930 1.205359 1.128334 1.228352 1.164740
P_10 1.246638 1.260407 1.202001 1.084579 1.205118 1.134224
P_10 1.140445 1.071727 1.120315 0.928471 1.012990 0.971479
P_10 0.919445 0.779781 0.686344 0.605893 0.599789 0.520448
P_10 0.550573 0.554515 0.572501 0.593319 0.666262 0.675262
P_10 0.748948 0.799500 0.859203 0.988116 1.060220 1.125863
P_10 1.169824 1.253969 1.216892 1.279172 1.256417 1.295150
P_10 1.228492 1.411256 1.199412 1.275354 1.265241 1.204137
P_10 1.161077 1.229761 1.229789 1.108823 1.172660 1.214413
P_10 1.124968 1.153141 1.197344 1.162318 1.121088 1.088455
P_10 1.024763 1.056164 0.928541 0.879828 0.785285 0.818298
P_10 0.732486 0.720109 0.732329 0.641438 0.628649 0.573308
P_10 0.530045 0.531012 0.523650 0.552414 0.516687 0.611599
P_10 0.617976 0.627341 0.738969 0.804348 0.887710 0.990365
P_10 1.066433 1.076946 1.059111 1.168313 1.219970 1.106164
P_10 1.206988 1.089447 1.120433 1.083848 1.037311 1.084824
P_10 1.101673 0.985167 0.925613 1.015024 1.107385 1.143783
P_10 1.174182 1.163630 1.284376 1.066291 1.164596 1.171611
P_10 1.109562 0.946147 1.054499 0.950599 0.799261 0.780387
P_10 0.703700 0.663570 0.579201 0.547749 0.476618 0.484219
P_10 0.471104 0.482252 0.563368 0.537409 0.678022 0.731540
P_10 0.851844 0.919270 1.032233 1.267286 1.331040 1.227404
P_10 1.424483 1.437515 1.406935 1.402161 1.510634 1.347444
P_10 1.354238 1.290572 1.223863 1.156991 1.115623 1.125945
P_10 1.010951 0.953496 1.043143 0.966742 1.050723 0.979185
P_10 1.059425 1.107842 1.057677 1.242819 1.300706 1.334635
P_10 1.107104 1.152605 1.178599 1.049822 0.913483 0.849775
P_10 0.833686 0.699206 0.566845 0.599233 0.534639 0.501649
P_10 0.477789 0.495190 0.543172 0.606711 0.717585 0.753318
P_10 0.814097 0.950728 0.930214 1.119232 1.215287 1.214184
P_10 1.332220 1.419199 1.353407 1.362303 1.449006 1.467941
P_10 1.320002 1.305340 1.271752 1.157938 1.169121 1.036116
P_10 0.976144 1.111123 1.004562 1.044456 1.058193 1.178983
P_10 1.040823 1.109038 1.210800 1.209820 1.211061 1.188855
P_10 1.190814 1.249673 1.131755 0.964690 0.935747 0.836186
P_10 0.730584 0.652335 0.637536 0.578754 0.556308 0.471889
P_10 0.480931 0.540716 0.546540 0.596122 0.701442 0.782742
P_10 0.898024 0.964990 1.064203 1.278891 1.260305 1.182366
P_10 1.240868 1.372561 1.346513 1.295305 1.415805 1.311917
P_10 1.242402 1.204939 1.219119 1.272895 1.195876 1.186435
P_10 1.126468 1.150946 1.232383 1.113915 1.084805 1.115462
P_10 1.183453 1.181181 1.216582 1.269667 1.311021 1.276114
P_10 1.248921 1.178409 1.137715 1.025745 0.962724 0.802965
P_10 0.831935 0.680326 0.589384 0.573663 0.529857 0.463752
P_10 0.478927 0.512806 0.575411 0.646050 0.733830 0.774935
P_10 0.906751 1.049826 1.113427 1.147696 1.183482 1.313623
P_10 1.396660 1.358036 1.297365 1.230261 1.300794 1.249445
P_10 1.244605 1.285101 1.203009 1.100513 1.058080 1.095027
P_10 1.030453 1.101548 0.961457 1.163311 1.180038 1.184525
P_10 1.228249 1.179996 1.236551 1.128310 1.219160 1.196060
P_10 1.173631 1.127880 1.057797 0.919797 0.951531 0.905500
P_10 0.826831 0.771636 0.694267 0.618690 0.546653 0.519622
P_10 0.530459 0.538916 0.598139 0.731926 0.816693 0.934492
P_10 1.053486 1.126101 1.292112 1.289549 1.394315 1.348183
P_10 1.625014 1.569188 1.589733 1.443302 1.541207 1.509526
P_10 1.239108 1.398639 1.253745 1.241115 1.211677 1.230766
P_10 1.260581 1.269067 1.139191 1.290358 1.198481 1.255526
P_10 1.276179 1.286477 1.089422 1.234715 1.197938 1.220086
P_10 1.153127 1.137934 1.094393 1.021750 0.964352 0.832696
P_10 0.816560 0.757537 0.699417 0.650456 0.624189 0.568006