; Filename: networks/Net1.inp
; WNTR: 0.1.6
; Created: 2019-04-09 13:12:33
[TITLE]
EPANET Example Network 1
A simple example of modeling chlorine decay. Both bulk and
wall reactions are included.

[JUNCTIONS]
;ID                      Elevation       Demand Pattern                 
 10                               710               0                            ;
 11                               710               0                            ;
 12                               700               0                            ;
 13                               695               0                            ;
 21                               700               0                            ;
 22                               695               0                            ;
 23                               690               0                            ;
 31                               700               0                            ;
 32                               710               0                            ;

[RESERVOIRS]
;ID                                   Head                  Pattern
 9                                800                            ;

[TANKS]
;ID                              Elevation           Init Level            Min Level            Max Level             Diameter           Min Volume Volume Curve        
 2                                850             120             100             150            50.5               0                        ;

[PIPES]
;ID                   Node1                Node2                              Length             Diameter            Roughness           Minor Loss               Status
 10                   10                   11                             10530              18             100               0                 Open   ;
 11                   11                   12                              5280              14             100               0                 Open   ;
 12                   12                   13                              5280              10             100               0                 Open   ;
 21                   21                   22                              5280              10             100               0                 Open   ;
 22                   22                   23                              5280              12             100               0                 Open   ;
 31                   31                   32                              5280               6             100               0                 Open   ;
 110                  2                    12                               200              18             100               0                 Open   ;
 111                  11                   21                              5280              10             100               0                 Open   ;
 112                  12                   22                              5280              12             100               0                 Open   ;
 113                  13                   23                              5280               8             100               0                 Open   ;
 121                  21                   31                              5280               8             100               0                 Open   ;
 122                  22                   32                              5280               6             100               0                 Open   ;

[PUMPS]
;ID                   Node1                Node2                Properties          
 9                    9                    10                   HEAD     1                      ;

[VALVES]
;ID                   Node1                Node2                            Diameter Type              Setting           Minor Loss

[TAGS]
;type      name       tag       

[DEMANDS]
;ID        Demand     Pattern   
10         0.0        P_10      
11         150.0      P_11      
12         150.0      P_12      
13         100.0      P_13      
21         150.0      P_21      
22         200.0      P_22      
23         150.0      P_23      
31         100.0      P_31      
32         100.0      P_32      

[STATUS]
;ID        Setting   
[PATTERNS]
;ID        Multipliers

1 1.000000 1.200000 1.400000 1.600000 1.400000 1.200000
1 1.000000 0.800000 0.600000 0.400000 0.600000 0.800000

P_10 0.604700 0.525750 0.450416 0.381606 0.359093 0.342603
P_10 0.398530 0.368747 0.420929 0.497671 0.547658 0.671882
P_10 0.733768 0.917323 0.903010 1.064871 1.225186 1.189195
P_10 1.258465 1.334546 1.441638 1.313707 1.302509 1.207137
P_10 1.096289 1.118212 1.087485 1.003613 0.999787 0.891614
P_10 0.874320 0.854129 0.920155 0.943659 0.867335 1.018274
P_10 0.973840 1.012810 1.113866 1.094416 1.080122 1.111071
P_10 1.056484 1.034194 0.956481 0.964810 0.827238 0.708562
P_10 0.632856 0.590091 0.422026 0.392333 0.374299 0.375725
P_10 0.349300 0.403121 0.449723 0.462311 0.572401 0.705508
P_10 0.785074 0.924940 0.924687 0.999006 1.075720 1.187810
P_10 1.245519 1.196835 1.268871 1.289532 1.235132 1.164626
P_10 1.128676 1.029833 1.079075 0.994102 0.918084 0.945715
P_10 0.960926 0.831504 0.850348 1.008957 1.064525 1.007418
P_10 1.036087 1.006635 1.133041 1.175719 1.131521 1.179788
P_10 1.053052 0.997285 0.978329 0.826152 0.734186 0.667294
P_10 0.582969 0.533626 0.474614 0.406791 0.371130 0.354552
P_10 0.370465 0.409775 0.475306 0.562789 0.532437 0.612574
P_10 0.862041 0.946926 0.980032 1.093398 1.118643 1.185763
P_10 1.074941 1.126659 1.310568 1.325626 1.278145 1.210765
P_10 1.192611 1.187595 1.213942 1.089267 0.982578 1.020726
P_10 0.944199 1.039752 0.941575 1.003623 1.060040 1.037688
P_10 1.143764 1.118300 1.172309 1.065168 1.066114 1.065190
P_10 1.159859 0.972117 0.958663 0.937533 0.881874 0.697672
P_10 0.636655 0.564515 0.452041 0.397176 0.389756 0.331578
P_10 0.379994 0.408161 0.435847 0.512588 0.575155 0.689267
P_10 0.786093 0.978758 0.994959 1.087071 1.090594 1.126304
P_10 1.263839 1.221717 1.237455 1.288749 1.291945 1.257588
P_10 1.244910 1.063934 1.092507 1.014572 0.997550 0.967897
P_10 1.025222 0.918487 1.064736 0.981816 1.009873 1.012790
P_10 1.148297 1.143352 1.077065 1.109785 1.015803 1.087404
P_10 1.050599 1.099564 0.975698 0.896671 0.886622 0.780360
P_10 0.713064 0.530045 0.470693 0.454913 0.400888 0.405343
P_10 0.358667 0.393496 0.479552 0.529279 0.678045 0.743362
P_10 0.855246 0.984136 1.166295 1.263776 1.304776 1.460857
P_10 1.591706 1.443494 1.527894 1.434511 1.366739 1.393976
P_10 1.261062 1.184810 1.011879 1.131675 1.156874 1.095024
P_10 1.012558 1.024465 0.984778 1.155184 1.105425 1.063580
P_10 1.059361 1.064741 1.024346 1.058033 1.016465 1.098421
P_10 0.941855 0.976582 1.021133 0.794804 0.770756 0.693399
P_10 0.637025 0.640539 0.572407 0.463798 0.453116 0.466807
P_10 0.406269 0.400782 0.443366 0.450695 0.502272 0.581490
P_10 0.620564 0.712284 0.837718 0.852390 1.039564 1.050355
P_10 1.171272 1.255608 1.172838 1.315256 1.164197 1.153340
P_10 0.995258 1.213352 1.137611 1.002520 1.124398 0.989862
P_10 1.041010 1.013814 1.117854 1.049247 1.022898 1.096328
P_10 1.021115 1.069962 1.043718 1.028544 0.956161 0.904124
P_10 0.922241 0.838166 0.771114 0.669932 0.698003 0.550803
P_10 0.565888 0.526339 0.530141 0.470554 0.432227 0.431373
P_10 0.385172 0.363514 0.360569 0.437108 0.462680 0.494183
P_10 0.559225 0.551647 0.673713 0.775678 0.759511 0.849473
P_10 0.866380 0.971284 1.002775 1.009987 1.083002 1.090995
P_10 1.104199 0.989480 1.038877 1.082741 0.971612 1.038137
P_10 1.027075 0.897044 0.910369 0.929423 0.973913 0.891305
P_10 1.072656 1.055418 0.996664 1.080744 1.102537 0.989705
P_10 0.999909 0.920308 0.787997 0.829923 0.707348 0.558840
P_10 0.574479 0.518911 0.426507 0.399076 0.356879 0.343382
P_10 0.345898 0.363472 0.407431 0.494112 0.573392 0.658503
P_10 0.759096 0.826971 0.971050 1.047915 1.172793 1.195224
P_10 1.269195 1.439740 1.433724 1.330723 1.294129 1.270868
P_10 1.287640 1.204480 1.102687 1.039583 1.019446 1.046402
P_10 0.908494 0.879893 0.929885 0.928739 0.969853 0.984784
P_10 1.017613 1.100633 1.208236 1.268510 1.057022 1.078755
P_10 0.978353 1.063439 0.994252 0.864439 0.849384 0.719221
P_10 0.638410 0.557852 0.474468 0.411596 0.419070 0.366735
P_10 0.365270 0.409981 0.468733 0.464759 0.558952 0.620012
P_10 0.740665 0.854958 0.915060 1.086355 1.041992 1.099947
P_10 1.215867 1.184826 1.330633 1.085327 1.217769 1.242676
P_10 1.127598 1.157558 1.151593 1.066351 1.050674 1.002223
P_10 0.984029 0.861820 0.979216 0.944338 1.011932 1.070304
P_10 1.039886 1.160275 1.205136 1.021278 1.243596 1.186663
P_10 1.087251 1.015487 0.999718 0.896682 0.831585 0.704489
P_10 0.610063 0.525560 0.428440 0.411881 0.377840 0.346332
P_10 0.375563 0.417329 0.466038 0.539143 0.618061 0.681638
P_10 0.779794 0.934643 0.931337 1.084511 1.173023 1.213357
P_10 1.214070 1.237076 1.336846 1.308367 1.311119 1.183652
P_10 1.289951 1.231103 1.050238 1.082031 1.122058 1.050359
P_10 1.123766 0.987539 1.000903 1.060514 1.067370 1.079480
P_10 1.042405 1.066816 1.058829 1.146199 1.192348 1.039539
P_10 1.048809 0.993470 0.996180 0.886245 0.906477 0.702702
P_10 0.623206 0.527947 0.470619 0.433361 0.395883 0.354249
P_10 0.364903 0.394073 0.430706 0.478622 0.605191 0.708387
P_10 0.723462 0.911926 0.932930 1.065911 1.109790 1.200246
P_10 1.177736 1.301981 1.322939 1.129836 1.148121 1.234493
P_10 1.139597 1.124930 1.048789 1.025038 1.032520 1.024864
P_10 0.979762 0.964640 1.031191 0.961846 1.003421 1.072896
P_10 1.027659 1.127251 1.138262 1.159647 1.125567 1.027627
P_10 1.025594 1.055481 0.940182 0.941771 0.826222 0.744492
P_10 0.682382 0.595053 0.445006 0.402969 0.427914 0.380147
P_10 0.386834 0.391647 0.496654 0.585274 0.695324 0.722112
P_10 0.884703 1.137972 1.089516 1.178564 1.292317 1.255689
P_10 1.309842 1.435452 1.341285 1.394775 1.372176 1.231685
P_10 1.247091 1.315971 1.182649 1.132956 1.167685 1.011959
P_10 1.168924 1.110183 1.104300 1.089530 1.086482 1.084639
P_10 1.096068 1.145363 1.047510 1.019427 1.048626 1.091227
P_10 1.025651 1.003879 0.899462 0.958752 0.773121 0.735797
P_10 0.730788 0.558829 0.616021 0.528250 0.448513 0.440597
P_10 0.404656 0.452998 0.380544 0.422396 0.462352 0.662381
P_10 0.674494 0.733244 0.740348 0.886156 0.930738 0.979620
P_10 1.125458 1.206984 1.178538 1.246064 1.190011 1.257122
P_10 1.174418 1.101003 1.227700 1.144657 1.098907 1.022566
P_10 0.997619 1.183045 1.175197 0.992707 1.040422 1.115009
P_10 1.128497 1.110627 1.013151 1.043677 0.941460 0.903747
P_10 0.893126 0.904603 0.763204 0.807910 0.671279 0.623425
P_10 0.567519 0.601962 0.502878 0.472497 0.463543 0.421712
P_10 0.393317 0.388491 0.402721 0.384797 0.452022 0.500277
P_10 0.549731 0.627073 0.652362 0.713437 0.815016 0.868755
P_10 0.928994 0.984414 1.047696 1.142923 0.992043 1.072694
P_10 1.200395 1.135088 0.963993 1.036464 1.017198 1.076415
P_10 0.892624 0.914573 0.984043 0.912730 0.978530 0.955533
P_10 0.911049 1.005024 1.026907 1.104380 1.055068 0.984830
P_10 1.015293 0.983951 0.839817 0.802545 0.771826 0.649607
P_10 0.605710 0.469052 0.427668 0.425486 0.403589 0.372713
P_10 0.343698 0.362420 0.440681 0.509677 0.655463 0.669540
P_10 0.734356 0.875596 0.998070 1.074377 1.257069 1.253068
P_10 1.226999 1.270683 1.271757 1.415334 1.344971 1.374983
P_10 1.226391 1.211900 1.185371 0.997244 1.042890 0.954087
P_10 0.994822 0.959445 0.949562 0.903130 0.961017 0.933835
P_10 1.063601 1.032524 1.075968 1.054782 1.032230 1.146162
P_10 1.083972 1.036430 0.978988 0.943926 0.804349 0.671345
P_10 0.622487 0.577793 0.484581 0.427520 0.356026 0.389262
P_10 0.347410 0.384136 0.444689 0.484302 0.588090 0.637934
P_10 0.746430 0.919094 0.995626 1.025065 1.121909 1.286179
P_10 1.089056 1.222095 1.331264 1.282098 1.304480 1.294246
P_10 1.172632 1.241652 1.192752 1.069386 1.065468 1.024155
P_10 1.005238 1.032437 1.034674 1.019657 1.024386 1.072291
P_10 1.153921 1.138041 1.139371 1.218938 1.122712 1.081694
P_10 1.118943 1.131235 0.910025 0.992502 0.769286 0.722259
P_10 0.625878 0.537757 0.448061 0.364284 0.389204 0.335491
P_10 0.382086 0.425388 0.436012 0.534196 0.659432 0.681674
P_10 0.830304 0.918220 0.936035 1.115796 1.105986 1.108598
P_10 1.207506 1.359037 1.422701 1.403598 1.311548 1.272269
P_10 1.295309 1.124785 1.132489 1.097875 1.093669 1.072223
P_10 1.030030 0.957374 1.026047 1.001780 1.147092 1.046373
P_10 1.087964 1.047720 1.133281 1.269797 1.081781 1.068607
P_10 1.119691 1.012709 0.951697 0.840076 0.870226 0.761930
P_10 0.642682 0.571216 0.507082 0.439485 0.372713 0.364673
P_10 0.351954 0.393615 0.462480 0.500185 0.586033 0.709007
P_10 0.815334 0.852459 0.935306 1.160364 1.182287 1.124795
P_10 1.153677 1.341332 1.235036 1.274653 1.183843 1.278923
P_10 1.192641 1.141829 1.112807 1.145938 1.028414 0.990266
P_10 0.935418 0.958980 1.032180 1.028029 1.007382 1.045570
P_10 1.122431 1.068488 1.030166 1.153863 1.044774 1.117731
P_10 1.102086 1.073495 0.951953 0.897998 0.836660 0.693116
P_10 0.617565 0.575905 0.521459 0.453759 0.400053 0.339359
P_10 0.392081 0.426543 0.472481 0.592277 0.696157 0.800609
P_10 0.918081 1.122866 1.147873 1.281449 1.384780 1.457684
P_10 1.484983 1.522479 1.444771 1.439870 1.446423 1.296740
P_10 1.249707 1.230346 1.160526 1.108740 1.069644 1.080952
P_10 1.015785 1.131081 1.164314 1.055679 1.033835 1.107796
P_10 1.084972 1.046045 1.148290 1.116058 1.161084 1.184306
P_10 0.964287 1.029954 0.897016 0.896412 0.790776 0.682201
P_10 0.686645 0.620267 0.547583 0.525060 0.496078 0.443976
P_10 0.453241 0.383390 0.452592 0.478778 0.496300 0.531230
P_10 0.718907 0.741549 0.780502 0.924459 0.930206 1.075604
P_10 1.065958 1.277984 1.239311 1.209589 1.181893 1.192869
P_10 1.210577 1.345228 1.166440 1.167882 1.149121 1.069758
P_10 1.067461 1.119697 1.089244 1.069906 1.097150 1.103226
P_10 1.190903 0.992086 1.081535 1.106062 1.031355 1.053932
P_10 0.868577 0.909188 0.835253 0.730536 0.657623 0.668922
P_10 0.641268 0.577043 0.560423 0.512114 0.430906 0.438787
P_10 0.419768 0.395890 0.425023 0.405757 0.422258 0.479952
P_10 0.556191 0.578826 0.689332 0.680006 0.815549 0.940861
P_10 0.884189 1.043516 1.071349 1.139736 0.994823 1.116378
P_10 1.010879 1.160164 1.062079 1.099286 0.976589 1.007898
P_10 0.982530 0.984329 0.977530 0.990066 0.953869 1.016300
P_10 0.979417 0.956892 0.994277 1.086586 0.999807 1.026638
P_10 1.120993 0.956610 0.849863 0.852825 0.759596 0.669643
P_10 0.618570 0.519255 0.481494 0.412995 0.380186 0.328418
P_10 0.342920 0.394499 0.453620 0.489793 0.582866 0.651033
P_10 0.746971 0.894861 0.973589 1.085978 1.220272 1.166095
P_10 1.316502 1.446820 1.365595 1.515100 1.422202 1.376783
P_10 1.282135 1.328046 1.163959 0.994610 0.982547 0.964019
P_10 0.973801 0.972859 0.913510 0.944981 0.970749 1.060552
P_10 1.093525 1.017981 1.145841 1.115631 1.127551 1.116934
P_10 1.097247 0.962836 1.030400 0.920345 0.823409 0.675207
P_10 0.640511 0.559361 0.507320 0.448692 0.379959 0.332160
P_10 0.394864 0.376915 0.460766 0.497655 0.594921 0.689862
P_10 0.816614 0.853534 1.014821 1.089681 1.165687 1.203230
P_10 1.236100 1.314912 1.275180 1.301433 1.167678 1.270732
P_10 1.175766 1.106238 1.118688 1.046172 1.007358 1.049103
P_10 1.008148 0.851735 0.959466 1.184030 0.950884 1.149317
P_10 1.121155 1.132265 1.203753 1.171819 1.282862 1.276605
P_10 1.157271 0.990391 1.036232 0.862463 0.778460 0.671487
P_10 0.613435 0.578117 0.437816 0.426866 0.402529 0.370826
P_10 0.364401 0.410749 0.493039 0.522666 0.601376 0.733148
P_10 0.787957 0.907965 0.997087 1.121477 1.165102 1.262746
P_10 1.338307 1.328113 1.205352 1.465425 1.420034 1.353259
P_10 1.293982 1.369343 1.239254 1.085353 1.155551 1.113519
P_10 1.126167 1.112979 1.108273 1.072796 1.069271 1.122074
P_10 1.110699 1.153997 1.120328 1.158529 1.191043 1.198469
P_10 1.142359 1.055905 1.033276 0.972255 0.898392 0.718765
P_10 0.661308 0.565703 0.509892 0.459910 0.391829 0.383236
P_10 0.387467 0.425361 0.462303 0.499320 0.599477 0.740829
P_10 0.847586 0.960868 1.006675 1.170447 1.284252 1.198227
P_10 1.394580 1.164192 1.515991 1.380331 1.299617 1.242842
P_10 1.180779 1.191952 1.125139 1.061851 1.072013 1.157075
P_10 1.029481 1.018194 1.061403 0.971791 1.103993 1.127737
P_10 1.108828 1.212651 1.169606 1.178905 1.155875 1.135788
P_10 1.139247 1.092907 1.033155 0.947009 0.805268 0.826443
P_10 0.710009 0.619709 0.538586 0.482946 0.394412 0.396662
P_10 0.402101 0.474330 0.582385 0.615471 0.704644 0.847219
P_10 0.944542 1.126875 1.111378 1.287358 1.516113 1.451664
P_10 1.541157 1.522667 1.448812 1.309655 1.450283 1.281361
P_10 1.155866 1.299782 1.278309 1.332636 1.134399 1.215163
P_10 1.176022 1.075781 1.130394 1.165970 1.091831 1.149435
P_10 1.161211 1.140065 1.182453 1.195331 1.075300 1.069779
P_10 1.053182 0.885100 0.968196 0.870591 0.925889 0.782293
P_10 0.717955 0.673860 0.583412 0.532295 0.470593 0.433697
P_10 0.404958 0.431023 0.441604 0.452713 0.540762 0.607317
P_10 0.660318 0.679847 0.905077 0.911880 0.952283 1.185389
P_10 1.166662 1.220763 1.246080 1.177025 1.284738 1.175648
P_10 1.266549 1.269467 1.284118 1.185637 1.222542 1.214026
P_10 1.124624 1.096436 1.123498 1.156638 1.061079 1.023808
P_10 1.019484 1.048397 1.075837 1.029115 1.032064 0.952808
P_10 0.986811 0.889922 0.817370 0.791645 0.686891 0.649546
P_10 0.620619 0.578678 0.522236 0.477782 0.430632 0.445226
P_10 0.395882 0.439478 0.415869 0.409413 0.420781 0.513538
P_10 0.580196 0.600768 0.725944 0.769294 0.796899 0.853011
P_10 0.945518 1.060171 1.122819 1.049001 1.157879 1.097571
P_10 1.135727 1.154894 1.081910 1.008332 1.040663 0.865033
P_10 1.003852 1.015310 0.933332 0.885987 0.995030 1.054508
P_10 1.127400 1.072443 1.098578 1.173049 1.128912 1.036349
P_10 1.029790 1.017621 0.915303 0.910563 0.753564 0.718908
P_10 0.549431 0.551821 0.462471 0.402212 0.361005 0.392145
P_10 0.371347 0.414863 0.442200 0.530880 0.555070 0.682288
P_10 0.738432 0.873774 1.014809 1.123544 1.067730 1.290337
P_10 1.400078 1.405233 1.429330 1.494727 1.555289 1.329719
P_10 1.270552 1.244234 1.217150 1.148117 1.057009 1.017359
P_10 1.102483 1.019004 0.939088 1.034055 0.947007 1.036436
P_10 1.052777 1.133756 1.193501 1.136377 1.091845 1.132066
P_10 1.044278 1.081327 0.958237 0.931606 0.863352 0.809644
P_10 0.660631 0.542523 0.526547 0.393979 0.376295 0.377129
P_10 0.384870 0.452246 0.434144 0.534166 0.606136 0.686946
P_10 0.795412 1.006096 1.086756 1.094883 1.162528 1.300720
P_10 1.284902 1.426625 1.257935 1.412020 1.260114 1.321572
P_10 1.364711 1.262085 1.103939 1.094303 1.022113 1.081023
P_10 0.950398 1.090533 0.988086 1.139094 0.965742 1.154220
P_10 1.209378 1.182894 1.175880 1.109171 1.199901 1.145353
P_10 1.150128 1.191002 1.032684 0.977168 0.783151 0.732390
P_10 0.617129 0.570259 0.492435 0.387227 0.388849 0.365825
P_10 0.390964 0.417444 0.456005 0.500562 0.682419 0.762245
P_10 0.815363 0.937132 0.957168 1.233165 1.321550 1.299075
P_10 1.237447 1.292089 1.381519 1.353095 1.223615 1.340119
P_10 1.377673 1.221920 1.211287 1.149489 1.143292 1.202045
P_10 1.032680 1.052886 1.072978 1.132011 1.047808 1.200933
P_10 1.151683 1.158309 1.228157 1.167204 1.238548 1.194494
P_10 1.104403 1.067957 0.989074 0.877291 0.840092 0.757504
P_10 0.734250 0.625850 0.496874 0.440120 0.379828 0.401226
P_10 0.390705 0.404449 0.499888 0.521240 0.699033 0.757225
P_10 0.775645 0.920502 1.088253 1.160483 1.193437 1.362519
P_10 1.225464 1.316875 1.310326 1.359932 1.295862 1.291987
P_10 1.251280 1.174021 1.121093 0.990295 1.037264 1.120900
P_10 1.035604 1.065246 1.083835 1.097038 1.201688 1.196594
P_10 1.086722 1.139125 1.139615 1.255240 1.182557 1.212865
P_10 1.175150 1.080432 1.066145 0.925404 0.893254 0.822101
P_10 0.758677 0.553612 0.508566 0.486239 0.409342 0.417593
P_10 0.403228 0.433439 0.534113 0.615598 0.713522 0.807676
P_10 0.996471 1.156992 1.136810 1.317018 1.338516 1.549334
P_10 1.569659 1.410089 1.633230 1.536851 1.428153 1.423061
P_10 1.344930 1.174129 1.425718 1.230807 1.182685 1.099900
P_10 1.156093 1.177927 1.050400 1.195123 1.191394 1.291773
P_10 1.042573 0.976903 1.095795 1.197375 1.136072 1.135575
P_10 1.091982 1.062753 0.960076 0.928746 0.825642 0.766493
P_10 0.743795 0.715100 0.613591 0.525022 0.482813 0.461364
P_10 0.443704 0.438708 0.448890 0.480776 0.557350 0.546694
P_10 0.675932 0.847508 0.844588 0.900446 1.047761 1.180061
P_10 1.210855 1.199361 1.332303 1.305183 1.349407 1.313456
P_10 1.278717 1.219335 1.220388 1.186437 1.176726 1.155919
P_10 1.233358 1.206029 1.186130 1.107383 1.206513 1.177618
P_10 1.065359 1.101459 1.161766 1.061670 1.062234 1.007565
P_10 0.954035 0.887688 0.746767 0.811515 0.731073 0.655817
P_10 0.636589 0.583801 0.554445 0.482006 0.504060 0.437142
P_10 0.412671 0.440185 0.435754 0.422846 0.491334 0.532475
P_10 0.520861 0.607950 0.726716 0.825384 0.840760 0.983848
P_10 1.018361 1.110066 1.131425 1.132277 1.251236 1.198502
P_10 1.180727 1.256315 1.152962 1.206336 1.130728 1.149656
P_10 0.961813 0.922500 1.006525 1.118688 1.129984 1.047803
P_10 1.060867 1.090579 1.117962 1.132918 1.028632 1.140986
P_10 1.029056 1.087205 0.944527 0.863364 0.692870 0.675710
P_10 0.613823 0.531771 0.521804 0.435546 0.401247 0.372574
P_10 0.370738 0.400096 0.435051 0.493507 0.629926 0.719402
P_10 0.739694 0.878915 0.975020 1.165673 1.196119 1.431448
P_10 1.413806 1.518664 1.531413 1.485499 1.428232 1.361841
P_10 1.441117 1.258151 1.256401 1.093585 1.149473 1.031546
P_10 1.004536 1.013160 0.977105 0.979570 0.930343 1.041293
P_10 1.037328 1.142130 1.009177 1.070662 1.092911 1.160593
P_10 1.203525 1.011316 1.057444 0.884234 0.824050 0.761104
P_10 0.676076 0.600970 0.475857 0.408313 0.375509 0.365867
P_10 0.433008 0.413978 0.478281 0.575328 0.693069 0.706565
P_10 0.884565 0.889801 0.979628 1.216548 1.214923 1.322786
P_10 1.284383 1.360210 1.316476 1.354497 1.380023 1.341511
P_10 1.328275 1.290737 1.196317 1.041564 1.158192 1.000862
P_10 1.047193 1.005190 0.928357 1.043659 1.069525 1.187588
P_10 1.194143 1.157348 1.259972 1.200837 1.228584 1.250081
P_10 1.215183 1.140102 0.976752 0.947401 0.891497 0.749069
P_10 0.644780 0.610681 0.470708 0.439569 0.414592 0.403154
P_10 0.435528 0.438766 0.452694 0.576859 0.683830 0.825707
P_10 0.851184 0.998537 1.207447 1.050265 1.226357 1.330626
P_10 1.413509 1.477999 1.384971 1.274115 1.402718 1.464403
P_10 1.239657 1.333236 1.300010 1.056626 1.214793 1.152078
P_10 1.024606 1.148705 1.074555 1.096261 1.121834 1.007553
P_10 1.234762 1.272481 1.146217 1.174428 1.123283 1.236260
P_10 1.211791 1.114793 1.075900 0.984791 0.874601 0.786860
P_10 0.627153 0.564243 0.529091 0.441934 0.385425 0.401415
P_10 0.400186 0.427595 0.450481 0.556591 0.636644 0.835238
P_10 0.833182 1.025774 1.054627 1.186898 1.229037 1.302825
P_10 1.447308 1.427079 1.405142 1.394185 1.337202 1.289892
P_10 1.318101 1.276178 1.172385 1.279684 1.129740 1.145601
P_10 1.118422 1.109350 1.065374 1.165587 1.160898 1.187188
P_10 1.179472 1.136114 1.165887 1.269990 1.261088 1.208012
P_10 1.222733 1.029936 0.978685 0.970770 0.961398 0.756476
P_10 0.695085 0.637970 0.542364 0.455730 0.409378 0.438943
P_10 0.424193 0.446957 0.548904 0.621407 0.705840 0.849177
P_10 0.903886 1.097833 1.236475 1.351306 1.483121 1.365863
P_10 1.617517 1.741997 1.624953 1.488717 1.533994 1.359207
P_10 1.378784 1.329909 1.270968 1.267459 1.239971 1.120685
P_10 1.113107 1.163352 1.185765 1.265482 1.156208 1.166538
P_10 1.165597 1.189771 1.186567 1.236012 1.256332 0.988154
P_10 1.084871 1.085122 1.012978 0.968069 0.861552 0.714675
P_10 0.672667 0.633963 0.563061 0.532726 0.527858 0.503268
P_10 0.422353 0.401138 0.461902 0.513888 0.509779 0.622464
P_10 0.660434 0.741614 0.861193 1.027992 0.904859 1.260721
P_10 1.164560 1.306984 1.309193 1.328324 1.349585 1.368314
P_10 1.243153 1.301724 1.331904 1.307492 1.174486 1.271887
P_10 1.181308 1.183528 1.178444 1.262456 1.237367 1.246437
P_10 1.167109 1.204322 1.088099 1.085386 1.145093 1.149217
P_10 0.967199 0.885316 0.854408 0.841632 0.727708 0.762104
P_10 0.700242 0.532314 0.596201 0.497622 0.477454 0.472578
P_10 0.448905 0.403809 0.459627 0.480832 0.451046 0.526678
P_10 0.560965 0.598313 0.773983 0.762188 0.886092 0.940802
P_10 1.049273 1.054111 1.151196 1.154459 1.084320 1.274692
P_10 1.209322 1.164076 1.243258 1.157033 1.032883 1.117600
P_10 1.148189 1.047349 0.998272 0.974211 1.078269 1.006226
P_10 1.062221 1.174740 1.168975 1.166930 1.215052 1.089281
P_10 1.113472 0.977277 0.921719 0.895572 0.765326 0.723534
P_10 0.624000 0.557679 0.498340 0.429950 0.410129 0.399208
P_10 0.406747 0.400229 0.470615 0.530981 0.645689 0.755131
P_10 0.872557 0.921711 0.961420 1.127001 1.319569 1.430686
P_10 1.399669 1.450633 1.557390 1.525727 1.484325 1.497529
P_10 1.256870 1.187664 1.273593 1.284404 1.144463 1.133413
P_10 0.850497 1.040624 0.992536 1.050658 1.045926 1.114592
P_10 1.095268 1.097652 1.243078 1.180867 1.089843 1.128105
P_10 1.150187 1.166924 1.017111 0.979553 0.896091 0.828200
P_10 0.658992 0.679943 0.567631 0.475362 0.433575 0.417523
P_10 0.422515 0.441936 0.506469 0.544846 0.667757 0.717844
P_10 0.856918 0.901530 1.070821 1.150250 1.255878 1.347226
P_10 1.351195 1.406087 1.387058 1.448497 1.382953 1.401168
P_10 1.384286 1.288435 1.296192 1.300006 1.146466 1.114844
P_10 1.020185 1.038103 1.129522 1.073536 1.042847 1.180166
P_10 1.081699 1.332538 1.238176 1.319539 1.327725 1.238442
P_10 1.143646 1.166509 0.999647 0.973980 0.920404 0.736777
P_10 0.662001 0.593434 0.500751 0.410619 0.387056 0.385914
P_10 0.404236 0.457244 0.484167 0.539799 0.678023 0.777581
P_10 0.871522 1.051976 0.985604 1.130485 1.135494 1.395341
P_10 1.254259 1.412249 1.445279 1.381783 1.342190 1.269520
P_10 1.327156 1.282622 1.313077 1.288014 1.283547 1.229969
P_10 1.163994 1.131065 1.241102 1.141246 1.091340 1.255342
P_10 1.154538 1.083421 1.190189 1.217825 1.289910 1.337301
P_10 1.208220 1.205525 1.002753 1.031384 0.863554 0.804496
P_10 0.676628 0.613998 0.525306 0.467202 0.424001 0.377092
P_10 0.398120 0.463589 0.514263 0.567205 0.719783 0.718881
P_10 0.953041 0.995166 1.101344 1.351453 1.333158 1.297781
P_10 1.449660 1.280183 1.305903 1.430087 1.440571 1.385081
P_10 1.240325 1.223102 1.273104 1.112938 1.142320 1.089852
P_10 1.077263 1.156415 1.142549 1.176700 1.124763 1.238887
P_10 1.128527 1.154373 1.275588 1.124067 1.182047 1.287155
P_10 1.220442 1.097878 1.070612 1.022646 0.922736 0.830987
P_10 0.754081 0.634826 0.563097 0.528686 0.437002 0.457567
P_10 0.457862 0.498314 0.569237 0.675055 0.770942 0.871216
P_10 0.902129 1.054576 1.274964 1.449613 1.426227 1.567872
P_10 1.641758 1.657948 1.615140 1.573224 1.479379 1.637011
P_10 1.466823 1.271663 1.326198 1.351407 1.212746 1.214626
P_10 1.225659 1.179675 1.180430 1.200775 1.147997 1.277904
P_10 1.175306 1.175698 1.250082 1.160619 1.058849 1.217776
P_10 1.133043 1.105602 1.019475 1.013483 0.978797 0.763003
P_10 0.780371 0.711643 0.679062 0.535455 0.529069 0.471213
P_10 0.436586 0.445448 0.473471 0.497140 0.550684 0.636999
P_10 0.641728 0.797622 0.891806 0.951833 0.994823 1.256503
P_10 1.324082 1.406819 1.170339 1.397252 1.339513 1.477795
P_10 1.366694 1.271547 1.122908 1.265823 1.366507 1.106278
P_10 1.185476 1.183763 1.130291 1.290184 1.136951 1.121728
P_10 1.156937 1.125123 1.261598 1.239572 1.053888 1.155824
P_10 1.073498 0.913930 0.883516 0.900534 0.730708 0.678741
P_10 0.679936 0.624729 0.546184 0.493660 0.491564 0.460045
P_10 0.477998 0.427870 0.440286 0.472280 0.452294 0.523959
P_10 0.593846 0.642266 0.656506 0.841404 0.857498 0.984853
P_10 1.015989 1.122883 1.177317 1.243199 1.298406 1.235274
P_10 1.278562 1.196912 1.195562 1.122298 1.167109 1.056508
P_10 1.116055 1.067723 0.973110 1.090797 0.951285 1.207576
P_10 1.164486 1.014218 1.116795 1.047332 1.229740 1.145179
P_10 1.239821 1.059729 0.891354 0.966479 0.795113 0.792099
P_10 0.669608 0.569000 0.543837 0.476207 0.383004 0.407631
P_10 0.399341 0.458246 0.467074 0.528656 0.608247 0.774840
P_10 0.852723 1.037466 1.097866 1.120084 1.281108 1.345557
P_10 1.442128 1.568324 1.490303 1.553213 1.416587 1.387242
P_10 1.327298 1.339454 1.169081 1.152157 1.160575 1.068051
P_10 1.081149 1.014181 1.180199 1.094722 1.051293 1.117148
P_10 1.118215 1.134742 1.132353 1.153755 1.179168 1.202435
P_10 1.214951 1.129877 0.921414 0.954356 0.896314 0.765355
P_10 0.763635 0.586369 0.554797 0.488977 0.434791 0.383970
P_10 0.407961 0.437791 0.486000 0.575166 0.623414 0.714148
P_10 0.856737 0.924990 1.063252 1.111878 1.208910 1.349962
P_10 1.253979 1.458343 1.354602 1.204688 1.436837 1.436878
P_10 1.394215 1.307787 1.219130 1.184463 1.188882 1.096340
P_10 0.970497 1.047617 1.062794 1.052106 1.136474 1.099054
P_10 1.125845 1.298881 1.310017 1.260008 1.247158 1.309369
P_10 1.288017 1.158830 1.085384 0.980040 0.807686 0.787268
P_10 0.722138 0.575290 0.505452 0.455415 0.374216 0.390176
P_10 0.427901 0.445415 0.553336 0.537796 0.708314 0.786067
P_10 0.935417 0.980705 1.125075 1.175288 1.168556 1.318933
P_10 1.404472 1.402106 1.374958 1.421092 1.311737 1.280796
P_10 1.407805 1.351148 1.244973 1.178593 1.202262 1.129647
P_10 1.106332 1.209484 1.243476 1.127377 1.222118 1.205120
P_10 1.256032 1.292195 1.200965 1.386943 1.155209 1.232487
P_10 1.286800 1.172361 1.126191 1.042611 0.987984 0.793004
P_10 0.667583 0.580662 0.550928 0.506292 0.410326 0.404424
P_10 0.354333 0.465787 0.464824 0.573143 0.640808 0.812520
P_10 0.899580 1.076127 1.131940 1.276459 1.224185 1.422450
P_10 1.485052 1.548969 1.471411 1.383424 1.414113 1.321538
P_10 1.322877 1.251749 1.244760 1.262372 1.179694 1.115571
P_10 1.086889 0.946531 1.071374 1.171730 1.166995 1.075473
P_10 1.224157 1.358567 1.214445 1.205997 1.256707 1.163386
P_10 1.228728 1.084870 1.151312 0.999755 0.974442 0.895961
P_10 0.732792 0.652969 0.520865 0.516001 0.453291 0.397220
P_10 0.447021 0.462520 0.516113 0.697208 0.796680 0.854044
P_10 1.005127 1.207882 1.367832 1.296776 1.554237 1.612096
P_10 1.653426 1.673797 1.602387 1.600696 1.466162 1.497382
P_10 1.389900 1.302677 1.298712 1.248321 1.277997 1.218319
P_10 1.084218 1.024175 1.228299 1.330908 1.204807 1.234008
P_10 1.203456 1.265956 1.232031 1.269971 1.180842 1.173337
P_10 1.182007 1.155753 1.022022 0.913798 0.928245 0.863394
P_10 0.812331 0.709989 0.612879 0.548628 0.508360 0.469095