; Filename: networks/Net1.inp
; WNTR: 0.1.6
; Created: 2019-04-09 13:10:05
[TITLE]
EPANET Example Network 1
A simple example of modeling chlorine decay. Both bulk and
wall reactions are included.

[JUNCTIONS]
;ID                      Elevation       Demand Pattern                 
 10                               710               0                            ;
 11                               710               0                            ;
 12                               700               0                            ;
 13                               695               0                            ;
 21                               700               0                            ;
 22                               695               0                            ;
 23                               690               0                            ;
 31                               700               0                            ;
 32                               710               0                            ;

[RESERVOIRS]
;ID                                   Head                  Pattern
 9                                800                            ;

[TANKS]
;ID                              Elevation           Init Level            Min Level            Max Level             Diameter           Min Volume Volume Curve        
 2                                850             120             100             150            50.5               0                        ;

[PIPES]
;ID                   Node1                Node2                              Length             Diameter            Roughness           Minor Loss               Status
 10                   10                   11                             10530              18             100               0                 Open   ;
 11                   11                   12                              5280              14             100               0                 Open   ;
 12                   12                   13                              5280              10             100               0                 Open   ;
 21                   21                   22                              5280              10             100               0                 Open   ;
 22                   22                   23                              5280              12             100               0                 Open   ;
 31                   31                   32                              5280               6             100               0                 Open   ;
 110                  2                    12                               200              18             100               0                 Open   ;
 111                  11                   21                              5280              10             100               0                 Open   ;
 112                  12                   22                              5280              12             100               0                 Open   ;
 113                  13                   23                              5280               8             100               0                 Open   ;
 121                  21                   31                              5280               8             100               0                 Open   ;
 122                  22                   32                              5280               6             100               0                 Open   ;

[PUMPS]
;ID                   Node1                Node2                Properties          
 9                    9                    10                   HEAD     1                      ;

[VALVES]
;ID                   Node1                Node2                            Diameter Type              Setting           Minor Loss

[TAGS]
;type      name       tag       

[DEMANDS]
;ID        Demand     Pattern   
10         0.0        P_10      
11         150.0      P_11      
12         150.0      P_12      
13         100.0      P_13      
21         150.0      P_21      
22         200.0      P_22      
23         150.0      P_23      
31         100.0      P_31      
32         100.0      P_32      

[STATUS]
;ID        Setting   
[PATTERNS]
;ID        Multipliers

1 1.000000 1.200000 1.400000 1.600000 1.400000 1.200000
1 1.000000 0.800000 0.600000 0.400000 0.600000 0.800000

P_10 0.619662 0.574251 0.514830 0.465656 0.439440 0.393043
P_10 0.438506 0.418136 0.487942 0.544431 0.558478 0.640739
P_10 0.805493 0.805920 0.997680 1.011572 1.162238 1.241276
P_10 1.163696 1.183345 1.244273 1.388514 1.304195 1.324638
P_10 1.147527 1.180134 1.019425 1.043464 1.017587 0.908201
P_10 0.877522 0.852978 0.862604 0.852969 0.806010 0.904241
P_10 0.981007 1.028568 0.987121 1.086885 1.137795 1.040806
P_10 1.041135 1.088382 0.917805 0.983557 0.788582 0.721853
P_10 0.658605 0.574586 0.525715 0.480530 0.434016 0.429106
P_10 0.447596 0.487760 0.512441 0.497410 0.632228 0.682722
P_10 0.723302 0.861922 0.914197 0.955961 1.083145 1.119917
P_10 1.167612 1.200420 1.227131 1.198306 1.263780 1.183880
P_10 1.125915 1.142431 0.996550 0.977315 0.900073 0.893128
P_10 0.852489 0.819593 0.915892 0.861442 1.025027 0.933594
P_10 0.948756 1.038355 1.080975 1.078125 0.965075 1.023891
P_10 1.046009 1.050831 0.995392 0.853050 0.777975 0.718154
P_10 0.635398 0.591962 0.481480 0.423272 0.406383 0.426367
P_10 0.440635 0.491898 0.577929 0.543909 0.593108 0.720431
P_10 0.782567 0.951419 0.956776 1.144792 0.959303 1.115310
P_10 1.132250 1.141464 1.173852 1.227980 1.169706 1.153990
P_10 1.133698 1.085820 1.020248 1.072693 1.003299 0.979199
P_10 0.949008 1.027719 1.013306 1.004051 0.995594 0.952225
P_10 1.048199 0.959910 1.153259 1.051539 1.031946 1.098107
P_10 1.084323 0.931108 0.972186 0.869164 0.858606 0.735206
P_10 0.648656 0.636655 0.542239 0.432072 0.449547 0.436292
P_10 0.450997 0.448349 0.483409 0.534733 0.633098 0.756454
P_10 0.787135 0.841139 0.978748 1.073740 1.058882 1.139499
P_10 1.128861 1.149111 1.102065 1.169802 1.180654 1.076248
P_10 1.049364 1.083743 0.977210 0.921719 0.952777 0.978263
P_10 0.874860 0.951081 0.987596 0.954368 0.913620 1.031685
P_10 0.954335 0.965223 1.151479 1.081910 1.036790 1.089479
P_10 1.001837 1.081603 0.935201 1.021214 0.812769 0.775253
P_10 0.703368 0.627779 0.546834 0.518614 0.481585 0.454194
P_10 0.459169 0.456742 0.542287 0.612679 0.698565 0.796153
P_10 0.925290 0.978801 1.104537 1.164432 1.171277 1.357665
P_10 1.284203 1.311304 1.298296 1.308517 1.208813 1.290126
P_10 1.142704 1.124469 1.166115 1.115048 1.009744 1.062028
P_10 0.967667 0.995674 1.004989 0.989441 1.045894 1.120075
P_10 1.044986 1.006383 1.081802 1.068247 1.054834 0.975901
P_10 0.883220 0.894711 0.915136 0.924707 0.817143 0.794504
P_10 0.698529 0.627478 0.594511 0.537915 0.520411 0.497273
P_10 0.501015 0.461713 0.499591 0.474799 0.548296 0.634891
P_10 0.690584 0.716486 0.829515 0.891469 0.991979 1.105262
P_10 1.066085 1.038340 1.206817 1.157362 1.228901 1.192495
P_10 1.101688 1.202834 1.204417 1.011386 1.005487 1.123452
P_10 1.066730 1.023318 1.000771 1.077823 1.018229 1.057725
P_10 0.957913 0.970359 0.950237 0.953731 0.972045 0.899163
P_10 0.966993 0.841986 0.818169 0.842571 0.728906 0.735527
P_10 0.643255 0.614761 0.565490 0.542230 0.500937 0.496763
P_10 0.478975 0.456154 0.466720 0.452121 0.497751 0.582108
P_10 0.485490 0.560028 0.589968 0.723871 0.759956 0.826480
P_10 0.886142 0.973711 1.014877 1.034360 1.012428 1.032032
P_10 1.100724 1.075964 1.030010 0.921968 0.976589 0.922164
P_10 0.920247 0.906230 0.912734 0.958376 0.947392 0.905711
P_10 0.949102 0.888896 1.058821 0.993808 0.934378 0.993809
P_10 1.037921 0.923765 0.751314 0.794142 0.775927 0.687820
P_10 0.659640 0.573226 0.508956 0.451314 0.452498 0.429471
P_10 0.424028 0.456428 0.480001 0.558250 0.612043 0.734800
P_10 0.756993 0.886334 0.922221 1.039203 1.110704 1.210920
P_10 1.274280 1.366811 1.318608 1.136463 1.236998 1.323651
P_10 1.245445 1.268889 1.039832 0.950218 1.058215 0.967206
P_10 0.908037 0.913478 0.794950 0.894188 0.867286 1.001024
P_10 1.010415 1.019657 1.047892 1.064611 1.149860 1.047785
P_10 1.024540 1.022201 0.947096 0.903084 0.796150 0.758300
P_10 0.668093 0.574722 0.530259 0.523295 0.438765 0.412690
P_10 0.475163 0.414222 0.473215 0.559112 0.605198 0.752444
P_10 0.790313 0.854801 0.910750 0.978322 1.020678 1.058074
P_10 1.117672 1.198093 1.177493 1.223696 1.221819 1.188779
P_10 1.080545 1.068332 1.039444 1.085790 0.964852 0.899761
P_10 0.853340 0.868350 0.932751 0.927071 0.885672 0.978710
P_10 1.037074 1.037123 1.094588 1.035460 1.134421 1.025858
P_10 1.001328 0.977136 1.012193 0.958992 0.821296 0.743681
P_10 0.667328 0.607426 0.512782 0.461817 0.432253 0.427267
P_10 0.461680 0.459663 0.516652 0.561333 0.628704 0.788105
P_10 0.800579 0.839982 0.909932 1.001084 1.191497 1.155778
P_10 1.224138 1.184559 1.059564 1.160277 1.215700 1.238100
P_10 1.106195 1.109929 1.108669 1.053090 0.995341 1.035353
P_10 0.996791 0.993632 1.020391 1.043287 0.977453 0.967250
P_10 1.006515 1.025442 1.069519 1.029615 1.124790 0.999167
P_10 1.049888 0.915785 1.008351 0.843067 0.907640 0.736984
P_10 0.684990 0.611925 0.512045 0.459625 0.408907 0.401392
P_10 0.442328 0.422181 0.512615 0.588121 0.564390 0.728424
P_10 0.872828 0.914902 0.966884 1.014964 1.084032 1.111529
P_10 1.201417 1.169983 1.189823 1.178200 1.234866 1.089905
P_10 0.962719 1.061672 1.086915 0.992980 0.884602 0.815487
P_10 0.974186 0.933686 0.968319 0.878000 0.988415 0.949522
P_10 1.013822 1.064283 1.038861 0.962880 1.116603 1.114158
P_10 1.117047 0.957973 1.039191 0.853129 0.850599 0.782268
P_10 0.737039 0.597664 0.592541 0.553793 0.437945 0.434749
P_10 0.453044 0.499410 0.531426 0.594078 0.727370 0.765545
P_10 0.923804 1.069909 1.044124 1.110502 1.274886 1.324090
P_10 1.382775 1.452587 1.464078 1.387977 1.415249 1.398262
P_10 1.246983 1.162540 1.102115 1.193132 1.089291 1.052998
P_10 1.103292 1.034564 1.005627 0.991125 1.140639 1.007184
P_10 1.058303 1.147436 1.074864 1.034874 1.056259 1.093979
P_10 0.998592 1.011850 0.966874 0.865395 0.859827 0.802725
P_10 0.700393 0.664989 0.554484 0.596984 0.521217 0.490505
P_10 0.491211 0.504926 0.462218 0.506237 0.548245 0.636181
P_10 0.674428 0.764011 0.776955 0.955203 0.936561 0.980086
P_10 1.100325 1.113634 1.171647 1.240523 1.120327 1.185696
P_10 1.068603 1.144496 1.129133 1.088135 1.109811 1.014654
P_10 1.039733 0.964154 1.072898 1.024313 1.012978 1.075040
P_10 1.050347 0.994281 1.036136 1.007645 0.970523 0.900266
P_10 0.879973 0.832908 0.815357 0.811176 0.764584 0.652336
P_10 0.652822 0.629692 0.547479 0.570738 0.528340 0.533266
P_10 0.489070 0.470259 0.450639 0.441122 0.483364 0.521866
P_10 0.597204 0.626895 0.596926 0.697662 0.741611 0.841540
P_10 0.907651 0.940081 1.038016 0.971746 0.969949 1.015465
P_10 0.982362 1.085582 1.104795 1.037811 1.011732 0.916849
P_10 1.019015 0.909684 0.834546 0.932881 0.948116 0.966117
P_10 0.939507 0.991678 0.959037 0.985144 0.978204 1.143766
P_10 1.006420 0.965723 0.897163 0.820304 0.843582 0.816072
P_10 0.675005 0.563980 0.562586 0.458691 0.445908 0.417564
P_10 0.419880 0.476252 0.487425 0.552258 0.594502 0.713179
P_10 0.733065 0.880914 0.920381 1.009806 1.048124 1.159236
P_10 1.332042 1.240712 1.271923 1.355035 1.208730 1.294591
P_10 1.120816 1.237607 1.027343 1.080241 0.968884 0.893999
P_10 0.884367 0.880640 0.942689 0.898110 0.972817 0.934666
P_10 0.999607 1.077220 1.069886 1.020559 1.018312 1.136296
P_10 1.070745 1.085142 0.947687 1.000666 0.908984 0.879572
P_10 0.682698 0.643901 0.506042 0.486845 0.478691 0.438887
P_10 0.439703 0.456044 0.528647 0.580033 0.691227 0.760386
P_10 0.769362 0.838925 1.056978 1.063485 1.057236 1.109439
P_10 1.194237 1.219598 1.261606 1.300295 1.226341 1.320744
P_10 1.174833 1.262230 1.150083 1.059757 0.947860 1.014266
P_10 0.891580 0.916537 0.935277 0.890184 0.982914 1.045402
P_10 1.021204 1.030870 1.061509 1.138942 1.111518 1.096698
P_10 1.095103 1.053663 0.889907 0.917888 0.866002 0.733404
P_10 0.658212 0.546214 0.493094 0.463020 0.474348 0.438388
P_10 0.453098 0.500585 0.519746 0.554371 0.648029 0.732002
P_10 0.807297 0.885977 0.918530 0.936197 1.094988 1.182268
P_10 1.211057 1.152720 1.266756 1.225350 1.113317 1.196253
P_10 1.155059 1.220698 1.158426 0.987877 1.063200 1.037166
P_10 0.969707 0.947606 0.940465 0.991120 0.973526 1.095921
P_10 1.073027 0.928730 1.011826 1.024974 1.083946 1.088062
P_10 0.989709 1.061525 0.940205 0.880999 0.837537 0.743922
P_10 0.677913 0.634979 0.526579 0.485889 0.443284 0.428024
P_10 0.446657 0.455613 0.514244 0.530786 0.637002 0.740947
P_10 0.763820 0.906384 1.018282 1.071567 1.064540 1.138955
P_10 1.241378 1.236868 1.292934 1.157693 1.170968 1.012460
P_10 1.087950 1.134440 1.064378 1.038710 0.960329 0.934999
P_10 0.895326 0.965325 0.953501 0.943750 1.040147 1.048664
P_10 1.021484 1.093358 1.012926 1.159519 1.074366 0.933362
P_10 1.101481 1.132097 0.904913 0.906648 0.831953 0.874891
P_10 0.729553 0.685722 0.606763 0.535694 0.512272 0.476951
P_10 0.445950 0.486461 0.485756 0.615108 0.656105 0.841471
P_10 0.924521 0.960926 1.183256 1.219063 1.389462 1.282192
P_10 1.331446 1.382798 1.442118 1.526579 1.365691 1.430104
P_10 1.304782 1.218666 1.172937 1.120766 1.148740 1.040633
P_10 1.082409 0.947422 1.008902 1.049569 1.112336 1.169238
P_10 1.106788 0.990733 1.095480 1.014444 1.120035 0.985652
P_10 0.899741 1.018246 0.924165 0.910314 0.890431 0.839002
P_10 0.837129 0.680250 0.599112 0.575168 0.456990 0.510249
P_10 0.514906 0.480983 0.479733 0.537167 0.529654 0.618530
P_10 0.679366 0.737977 0.822097 0.874715 1.013027 1.081183
P_10 1.136445 1.150750 1.247769 1.175546 1.125900 1.161775
P_10 1.116982 1.174396 1.201809 1.117951 1.050098 1.090058
P_10 1.102688 1.082272 1.171092 1.083993 1.021306 1.200776
P_10 0.991363 1.087340 0.989093 0.977503 1.041576 0.918797
P_10 0.874915 0.883063 0.904897 0.708130 0.723351 0.673773
P_10 0.677282 0.591962 0.597607 0.526704 0.502779 0.502976
P_10 0.507229 0.528834 0.485617 0.485517 0.505097 0.540487
P_10 0.588138 0.641957 0.675404 0.766261 0.790603 0.896865
P_10 0.863246 0.948052 0.967634 1.085110 1.129068 1.103594
P_10 1.126809 1.043559 1.052809 1.092658 0.903907 0.902446
P_10 1.020181 0.912234 0.887846 0.927421 0.910928 0.890829
P_10 1.037034 1.019804 0.986751 1.024938 0.914923 1.014558
P_10 0.973208 0.959621 0.960284 0.930422 0.848246 0.765140
P_10 0.626836 0.517046 0.539738 0.518336 0.479934 0.460494
P_10 0.418099 0.471556 0.514797 0.591289 0.590082 0.746749
P_10 0.788425 0.905827 0.962137 1.031812 1.108643 1.267402
P_10 1.250900 1.335352 1.306066 1.332104 1.215340 1.377403
P_10 1.224471 1.035760 1.052283 1.076036 0.972842 0.891512
P_10 0.827291 0.897202 0.820005 0.930666 0.996228 0.963342
P_10 0.950885 1.026290 0.988704 1.103995 1.108505 1.113812
P_10 1.074850 1.140222 1.015719 0.885766 0.845858 0.769737
P_10 0.731441 0.667770 0.565355 0.464018 0.435866 0.471306
P_10 0.434892 0.523416 0.516305 0.608093 0.641422 0.785926
P_10 0.744381 0.830580 0.992990 1.005658 1.030324 1.175291
P_10 1.112252 1.255453 1.215388 1.128163 1.263684 1.195975
P_10 1.148127 1.178132 1.065350 1.117887 0.919878 0.973911
P_10 0.965890 0.908275 0.983021 0.947026 1.005303 1.060225
P_10 1.047295 1.054160 1.113199 1.115989 1.163250 1.093924
P_10 0.934195 1.045111 0.975179 0.941726 0.792282 0.804553
P_10 0.695516 0.616068 0.520340 0.445357 0.461683 0.459563
P_10 0.444140 0.474704 0.537116 0.618515 0.655847 0.769683
P_10 0.776733 0.890666 0.949666 1.090853 1.118120 1.096612
P_10 1.236754 1.228165 1.210665 1.313683 1.282088 1.355628
P_10 1.193197 1.008594 1.170641 1.132205 1.087123 0.999887
P_10 1.047736 1.031125 1.033237 1.073307 0.996223 1.027028
P_10 1.066102 1.065695 1.116558 1.203511 1.190610 1.040576
P_10 1.066089 1.030927 1.005323 0.909017 0.851848 0.776065
P_10 0.658902 0.626013 0.581713 0.530989 0.479352 0.424313
P_10 0.440226 0.471250 0.543852 0.636589 0.685291 0.763953
P_10 0.803616 0.951596 0.912319 1.075111 1.157209 1.152603
P_10 1.094371 1.240436 1.245520 1.262643 1.299222 1.150467
P_10 1.124272 1.161270 0.975774 1.101650 0.980523 0.934754
P_10 0.895208 1.030444 0.995632 0.864265 0.940583 1.071516
P_10 1.059413 0.968564 1.174964 1.146409 1.174840 1.120610
P_10 1.004256 1.039167 1.034772 0.929753 0.852737 0.768692
P_10 0.690590 0.644257 0.534020 0.541452 0.500336 0.481530
P_10 0.477409 0.505459 0.558170 0.604920 0.666033 0.834648
P_10 0.818428 1.006290 1.140896 1.241881 1.284422 1.336143
P_10 1.530990 1.363856 1.412960 1.371050 1.504166 1.275302
P_10 1.302139 1.093173 1.099331 1.212289 1.190284 1.084076
P_10 1.109948 1.097656 1.127139 0.986470 1.081394 1.088400
P_10 1.135603 0.956579 1.069643 1.120980 1.112450 1.176065
P_10 0.985468 1.006274 0.933439 0.922462 0.803808 0.772143
P_10 0.769195 0.664592 0.611665 0.598748 0.565448 0.496984
P_10 0.487661 0.500613 0.525990 0.570403 0.563583 0.635708
P_10 0.701811 0.832815 0.823728 0.965559 0.964880 0.995019
P_10 1.123942 1.240643 1.124844 1.321119 1.170717 1.176787
P_10 1.221042 1.098765 0.983596 1.121867 1.226088 1.091340
P_10 1.154492 1.027015 1.118792 0.979980 1.154555 1.113067
P_10 1.097862 1.117750 1.025691 1.063129 1.002727 0.975791
P_10 0.953595 0.918668 0.850548 0.775361 0.792562 0.688308
P_10 0.672383 0.674452 0.672951 0.557656 0.526066 0.476208
P_10 0.511036 0.496883 0.460062 0.482004 0.478119 0.523285
P_10 0.541613 0.645972 0.728313 0.734816 0.815777 0.913064
P_10 1.026674 0.934817 1.026944 1.025461 1.076154 1.132070
P_10 1.056451 1.136020 1.119098 1.011953 1.013826 0.955673
P_10 0.928860 1.008433 0.884300 1.007711 0.970750 1.008268
P_10 0.954643 0.983020 1.036040 1.009247 1.102849 0.996611
P_10 1.071311 1.047586 0.948053 0.936664 0.869238 0.776087
P_10 0.679504 0.557270 0.556093 0.478498 0.461235 0.411989
P_10 0.456836 0.498282 0.478495 0.576150 0.626219 0.648163
P_10 0.784447 0.854288 0.901029 1.122743 1.250281 1.190688
P_10 1.293905 1.432997 1.153144 1.289619 1.342511 1.208565
P_10 1.318596 1.231658 1.213649 1.051690 0.984222 0.992651
P_10 0.911478 0.963262 0.850998 0.950519 0.959102 0.981105
P_10 1.078930 1.116700 1.052636 1.089002 1.139929 1.059248
P_10 1.090667 1.119188 1.093992 0.852114 0.859044 0.855669
P_10 0.764640 0.625377 0.595160 0.478614 0.455928 0.402727
P_10 0.460772 0.500502 0.465660 0.556159 0.667094 0.734260
P_10 0.832876 0.829096 0.974121 0.980706 1.256954 1.176272
P_10 1.266261 1.296028 1.363690 1.217278 1.229762 1.265542
P_10 1.247120 1.192263 1.124795 1.074333 1.054702 0.940243
P_10 0.977316 0.965270 1.023859 0.988156 0.995490 0.998586
P_10 1.208525 1.076713 1.191944 1.095146 1.092043 1.157193
P_10 1.153626 0.994032 0.999888 1.008553 0.896879 0.849720
P_10 0.718728 0.567162 0.519826 0.470335 0.461747 0.427694
P_10 0.484989 0.487918 0.500532 0.585424 0.684096 0.761604
P_10 0.850243 1.021963 1.016646 0.987957 1.186940 1.202413
P_10 1.245044 1.288468 1.271434 1.301223 1.219496 1.257031
P_10 1.273155 1.069094 1.124234 1.076310 1.139925 1.111330
P_10 1.044083 1.035980 1.001622 1.060092 1.015031 1.081712
P_10 0.981316 1.118965 1.061905 1.131918 1.103719 1.076735
P_10 1.211155 1.044868 1.012692 0.885873 0.884026 0.868387
P_10 0.711476 0.598549 0.565132 0.536569 0.488589 0.474921
P_10 0.442070 0.481759 0.545875 0.570531 0.708272 0.790812
P_10 0.805172 0.934233 1.069506 1.005975 1.229338 1.302984
P_10 1.168267 1.384737 1.246650 1.199724 1.218429 1.197828
P_10 1.126539 1.066104 1.086112 1.122054 1.071080 1.058023
P_10 1.042691 0.912278 0.978002 1.067393 1.034970 1.024608
P_10 1.080303 1.048413 1.140207 1.114066 1.140466 1.155304
P_10 1.083916 1.005012 1.034096 0.919748 0.902819 0.797826
P_10 0.716292 0.702404 0.574203 0.481241 0.519480 0.456994
P_10 0.488465 0.559304 0.579740 0.643635 0.761116 0.819883
P_10 1.008271 1.041291 1.106742 1.383431 1.212848 1.380190
P_10 1.438371 1.438446 1.316610 1.420581 1.239108 1.248644
P_10 1.219562 1.295506 1.169587 1.204840 1.067897 1.000243
P_10 1.046896 1.041853 1.091600 1.074077 1.092425 1.077325
P_10 1.073323 1.184431 1.026366 1.126848 1.135152 1.148355
P_10 0.972234 1.108359 1.025802 1.026250 1.025595 0.836600
P_10 0.715867 0.757981 0.648583 0.623174 0.543811 0.551196
P_10 0.522211 0.514136 0.478027 0.547939 0.637126 0.678882
P_10 0.759433 0.766545 0.857145 0.906850 1.045464 1.046792
P_10 1.164450 1.185474 1.231923 1.272792 1.240216 1.197652
P_10 1.123082 1.088320 1.153200 1.207629 1.129675 1.112667
P_10 1.034594 1.140703 1.212602 1.121560 1.120151 1.194050
P_10 1.094860 1.141209 1.119236 1.104667 0.974229 1.071466
P_10 0.956179 0.957327 0.835279 0.744997 0.769735 0.743558
P_10 0.758945 0.620700 0.627657 0.505277 0.586968 0.498195
P_10 0.466923 0.497844 0.471818 0.496931 0.532915 0.567009
P_10 0.590110 0.618464 0.682518 0.728066 0.883597 0.867921
P_10 0.998011 1.010892 1.042385 1.166287 1.215387 1.194418
P_10 1.123338 1.054614 1.072216 1.135745 0.945880 1.029919
P_10 0.933617 1.073977 0.986643 0.987335 0.998451 0.936367
P_10 1.088291 1.027099 1.070776 1.109758 1.136725 1.107326
P_10 1.044923 0.988162 1.004615 0.857729 0.788475 0.789054
P_10 0.706850 0.586325 0.562413 0.517477 0.443396 0.445328
P_10 0.480707 0.465951 0.518002 0.564677 0.623938 0.728247
P_10 0.791819 0.845254 1.049582 1.080911 1.229694 1.201219
P_10 1.249217 1.193064 1.342128 1.395856 1.353763 1.342174
P_10 1.266325 1.157942 1.093856 1.180740 0.948942 0.936553
P_10 0.971153 0.909096 1.044530 0.907446 0.902757 1.051038
P_10 1.101720 1.062524 1.063672 1.093000 1.175693 1.206135
P_10 1.128313 1.161249 1.015982 0.962289 0.933477 0.881971
P_10 0.755586 0.696280 0.557301 0.528154 0.485941 0.431398
P_10 0.450028 0.498576 0.521892 0.599503 0.634095 0.738363
P_10 0.824562 0.857295 0.964447 1.074534 1.105556 1.235740
P_10 1.369508 1.145882 1.313010 1.403774 1.222502 1.252311
P_10 1.295147 1.146230 1.262505 1.105716 1.040207 0.965690
P_10 1.054233 1.013328 0.933881 1.028094 0.986000 1.045302
P_10 1.066626 1.114526 1.118526 1.131036 1.191060 1.233253
P_10 1.158961 1.110671 1.007557 0.964752 0.859385 0.826739
P_10 0.731560 0.659124 0.572764 0.578614 0.495747 0.467801
P_10 0.504247 0.487490 0.521357 0.556360 0.660841 0.779848
P_10 0.857139 0.958203 1.182065 1.106240 1.211353 1.214051
P_10 1.216574 1.373598 1.298580 1.366456 1.369700 1.272817
P_10 1.198153 1.174832 1.143025 1.102201 1.195895 1.144940
P_10 1.019414 1.064507 1.064948 1.043237 1.085896 1.084692
P_10 1.037931 1.132701 1.113094 1.046633 1.245392 1.143197
P_10 1.080149 1.059345 1.134413 0.899245 0.928316 0.796964
P_10 0.695691 0.615697 0.559393 0.513958 0.457831 0.438643
P_10 0.429464 0.492595 0.536877 0.623915 0.706267 0.799959
P_10 0.841843 0.957080 1.114449 1.071133 1.181268 1.203888
P_10 1.263475 1.296587 1.335249 1.168748 1.249470 1.117245
P_10 1.301126 1.187636 1.170252 1.104365 1.078872 1.079308
P_10 0.915368 0.955174 1.013497 1.098287 1.038510 1.243436
P_10 1.094393 1.074380 1.177800 1.094440 1.215675 1.172860
P_10 1.302651 1.087598 1.127174 0.944903 0.900455 0.828886
P_10 0.697331 0.650684 0.665726 0.556758 0.495224 0.512800
P_10 0.513830 0.528669 0.589212 0.666118 0.724920 0.860700
P_10 0.904512 1.120404 1.216601 1.221716 1.413632 1.488794
P_10 1.440964 1.538194 1.521190 1.425131 1.485887 1.344598
P_10 1.209482 1.351511 1.183571 1.203377 1.158008 1.115656
P_10 1.156888 1.089941 1.086286 1.155007 1.064237 1.142085
P_10 1.179890 1.222183 1.169461 1.133607 1.149793 1.094590
P_10 1.152599 1.182961 1.045556 0.960123 1.047806 0.839365
P_10 0.761187 0.718700 0.658276 0.638688 0.574810 0.557998
P_10 0.513952 0.487258 0.527055 0.502597 0.563938 0.636688
P_10 0.720484 0.823257 0.922122 0.985868 1.094127 1.093968
P_10 1.164927 1.177718 1.245399 1.175382 1.247133 1.221790
P_10 1.233435 1.295801 1.292848 1.102532 1.085979 1.032101
P_10 1.132199 1.153367 1.029140 1.080025 1.156053 1.092477
P_10 1.216751 1.169138 1.207763 1.037277 1.071586 1.098486
P_10 1.079933 0.949170 0.920870 0.883486 0.818595 0.743987
P_10 0.619934 0.646700 0.670749 0.594719 0.574176 0.534216
P_10 0.498455 0.460907 0.462148 0.497226 0.497807 0.582869
P_10 0.562203 0.656177 0.691715 0.887078 0.881461 0.987275
P_10 1.037180 1.006209 1.030234 1.114973 1.002258 1.101554
P_10 1.106723 1.127817 1.062800 1.115113 0.930975 1.105695
P_10 1.081987 1.043984 0.998329 1.004929 1.054357 1.008284
P_10 1.130143 1.071244 1.090438 1.140077 1.098034 1.186727
P_10 1.052574 1.059494 0.955807 1.007510 0.821268 0.798711
P_10 0.681827 0.625943 0.558144 0.486065 0.475771 0.487446
P_10 0.475059 0.472614 0.519751 0.578672 0.626378 0.754742
P_10 0.824982 1.017764 0.973584 1.111044 1.155228 1.213849
P_10 1.211656 1.433147 1.420290 1.345168 1.356195 1.372685
P_10 1.370614 1.361953 1.168183 1.162394 1.058793 0.952977
P_10 0.983661 1.014486 0.928536 0.903363 1.085073 1.013984
P_10 1.037465 1.095401 1.127896 1.240866 1.213400 1.116204
P_10 1.175552 1.164218 1.018411 1.005291 0.943248 0.820881
P_10 0.745425 0.711598 0.607794 0.572437 0.484928 0.435582
P_10 0.488523 0.551760 0.565911 0.644776 0.670500 0.788200
P_10 0.772308 0.912436 1.022522 1.083394 1.215186 1.332889
P_10 1.346412 1.261699 1.387564 1.313011 1.245115 1.085440
P_10 1.192656 1.234102 1.054782 1.096492 1.078923 1.080014
P_10 0.970647 1.003621 0.959819 1.091800 0.976446 1.194024
P_10 1.250303 1.154047 1.245348 1.223679 1.243203 1.204151
P_10 1.158866 1.080620 1.041184 0.982246 0.917566 0.843668
P_10 0.737746 0.687216 0.564266 0.481548 0.483875 0.461507
P_10 0.461851 0.494247 0.512396 0.606418 0.764811 0.724889
P_10 0.917418 1.023169 1.147738 1.166614 1.172525 1.282438
P_10 1.356204 1.335580 1.178018 1.329486 1.332098 1.387519
P_10 1.207831 1.347163 1.289394 1.187607 1.117274 1.069538
P_10 1.093564 1.065728 1.069520 1.092315 1.073542 1.015067
P_10 1.078612 1.165441 1.248571 1.165179 1.194970 1.216083
P_10 1.152881 1.086333 1.045937 0.997044 0.897489 0.897272
P_10 0.783738 0.686725 0.589037 0.502919 0.464445 0.417676
P_10 0.460097 0.478575 0.552987 0.620491 0.681092 0.807956
P_10 0.849672 0.967218 1.116352 1.285517 1.210829 1.309043
P_10 1.307099 1.277880 1.330281 1.272083 1.151475 1.162371
P_10 1.348528 1.218641 1.212064 1.147992 1.114930 1.053645
P_10 1.074994 1.067325 1.137994 1.069966 1.082840 1.171717
P_10 1.057230 1.127523 1.193685 1.177958 1.276345 1.210521
P_10 1.253287 1.111740 1.144719 1.036335 0.991363 0.872166
P_10 0.866520 0.736137 0.574713 0.570149 0.488703 0.514599
P_10 0.476775 0.517548 0.605183 0.686313 0.811167 0.768629
P_10 1.033020 1.070418 1.142408 1.167747 1.359454 1.390140
P_10 1.417963 1.517220 1.445751 1.611074 1.412288 1.435035
P_10 1.355890 1.278759 1.256813 1.163855 1.190409 1.147681
P_10 1.064060 1.069472 1.031467 1.156906 1.122177 1.246401
P_10 1.109317 1.187575 1.137521 1.144895 1.089856 1.087170
P_10 1.079911 0.994093 1.030092 0.946859 0.938152 0.831783
P_10 0.826448 0.647310 0.709769 0.639420 0.594315 0.587556
P_10 0.527916 0.489512 0.502471 0.545037 0.544202 0.634478
P_10 0.749422 0.772858 0.905229 1.007513 0.971491 1.174372
P_10 1.351661 1.180861 1.247473 1.254060 1.326330 1.317321
P_10 1.230140 1.281007 1.179425 1.149363 1.187212 1.241584
P_10 1.070237 1.121689 1.201277 1.133962 1.138293 1.090095
P_10 1.170770 1.046613 1.190710 1.149029 1.022602 1.051712
P_10 0.942728 0.984549 0.933023 0.834046 0.835842 0.732924
P_10 0.649524 0.681040 0.712381 0.621113 0.589860 0.547954
P_10 0.557392 0.521456 0.498067 0.521385 0.544020 0.562007
P_10 0.592539 0.659799 0.763022 0.827851 0.907200 0.845924
P_10 1.023649 1.067384 1.099248 1.164604 1.172576 1.241732
P_10 1.116477 1.173439 1.151527 1.104176 1.123897 1.095375
P_10 1.048525 0.987306 1.042179 0.997755 1.090911 1.091362
P_10 1.117896 1.022404 1.129646 1.078411 1.224259 1.040976
P_10 1.002198 1.105943 1.054217 0.934478 0.855449 0.819804
P_10 0.730864 0.617729 0.594186 0.538505 0.514383 0.505350
P_10 0.440330 0.523055 0.531604 0.594772 0.636808 0.791111
P_10 0.876602 0.976295 1.089479 1.123756 1.342793 1.266931
P_10 1.336990 1.366985 1.438918 1.449580 1.430664 1.178616
P_10 1.321886 1.346566 1.195524 1.150744 1.028781 0.998535
P_10 1.009486 0.946457 0.976939 1.029123 1.002577 1.045532
P_10 1.136070 1.083688 1.158019 1.164324 1.218055 1.116418
P_10 1.240374 1.185249 1.107156 0.977897 0.888147 0.907227
P_10 0.749475 0.651754 0.601523 0.549883 0.508515 0.513941
P_10 0.495859 0.509213 0.583120 0.626468 0.738214 0.766536
P_10 0.883705 0.923532 1.217592 1.076389 1.255871 1.326909
P_10 1.270685 1.235250 1.421378 1.487909 1.405395 1.270171
P_10 1.312204 1.247372 1.314937 1.104689 1.044329 1.080961
P_10 1.077738 1.034887 1.155052 1.142893 1.111341 0.978826
P_10 1.188436 1.212875 1.228023 1.164321 1.400943 1.227335
P_10 1.210864 1.065926 1.137212 1.016149 0.961187 0.841091
P_10 0.819115 0.703824 0.514579 0.552876 0.501688 0.507928
P_10 0.507749 0.535551 0.544305 0.685748 0.694127 0.756647
P_10 0.880476 1.011779 1.131373 1.094134 1.171230 1.278250
P_10 1.320061 1.416973 1.253879 1.397722 1.260211 1.192475
P_10 1.274289 1.152893 1.125896 1.140320 1.177530 1.187452
P_10 1.088515 1.209382 1.096392 1.058810 1.045495 1.045033
P_10 1.104402 1.169443 1.236600 1.235742 1.215364 1.245108
P_10 1.129771 1.117055 1.039549 0.941692 0.913628 0.810161
P_10 0.822114 0.737360 0.564305 0.566459 0.515939 0.486502
P_10 0.472109 0.480850 0.584533 0.611745 0.752271 0.778156
P_10 0.907445 1.049438 1.154454 1.181754 1.101442 1.190066
P_10 1.360339 1.412068 1.491351 1.329426 1.320545 1.252695
P_10 1.240797 1.235850 1.223405 1.103068 1.045790 1.107551
P_10 1.063220 1.019162 1.144601 1.088663 1.084688 1.251002
P_10 1.186581 1.069943 1.310423 1.165871 1.165087 1.244062
P_10 1.173418 1.116269 1.068880 1.041734 1.001658 0.850761
P_10 0.843527 0.761820 0.665105 0.552721 0.585417 0.490202
P_10 0.499861 0.566403 0.566379 0.718541 0.779155 0.825429
P_10 1.117121 1.231922 1.393114 1.285072 1.466706 1.410235
P_10 1.476065 1.544781 1.463477 1.536718 1.534661 1.410722
P_10 1.452736 1.259380 1.280078 1.165872 1.240859 1.106913
P_10 1.297011 1.159664 1.094392 1.266379 1.176533 1.187239
P_10 1.276147 1.214838 1.308437 1.250486 1.052221 1.124521
P_10 1.152702 1.163080 1.116693 0.977812 0.991563 0.855211
P_10 0.839474 0.749644 0.680325 0.686607 0.601945 0.573794