; Filename: networks/Net1.inp
; WNTR: 0.1.6
; Created: 2019-04-09 13:10:58
[TITLE]
EPANET Example Network 1
A simple example of modeling chlorine decay. Both bulk and
wall reactions are included.

[JUNCTIONS]
;ID                      Elevation       Demand Pattern                 
 10                               710               0                            ;
 11                               710               0                            ;
 12                               700               0                            ;
 13                               695               0                            ;
 21                               700               0                            ;
 22                               695               0                            ;
 23                               690               0                            ;
 31                               700               0                            ;
 32                               710               0                            ;

[RESERVOIRS]
;ID                                   Head                  Pattern
 9                                800                            ;

[TANKS]
;ID                              Elevation           Init Level            Min Level            Max Level             Diameter           Min Volume Volume Curve        
 2                                850             120             100             150            50.5               0                        ;

[PIPES]
;ID                   Node1                Node2                              Length             Diameter            Roughness           Minor Loss               Status
 10                   10                   11                             10530              18             100               0                 Open   ;
 11                   11                   12                              5280              14             100               0                 Open   ;
 12                   12                   13                              5280              10             100               0                 Open   ;
 21                   21                   22                              5280              10             100               0                 Open   ;
 22                   22                   23                              5280              12             100               0                 Open   ;
 31                   31                   32                              5280               6             100               0                 Open   ;
 110                  2                    12                               200              18             100               0                 Open   ;
 111                  11                   21                              5280              10             100               0                 Open   ;
 112                  12                   22                              5280              12             100               0                 Open   ;
 113                  13                   23                              5280               8             100               0                 Open   ;
 121                  21                   31                              5280               8             100               0                 Open   ;
 122                  22                   32                              5280               6             100               0                 Open   ;

[PUMPS]
;ID                   Node1                Node2                Properties          
 9                    9                    10                   HEAD     1                      ;

[VALVES]
;ID                   Node1                Node2                            Diameter Type              Setting           Minor Loss

[TAGS]
;type      name       tag       

[DEMANDS]
;ID        Demand     Pattern   
10         0.0        P_10      
11         150.0      P_11      
12         150.0      P_12      
13         100.0      P_13      
21         150.0      P_21      
22         200.0      P_22      
23         150.0      P_23      
31         100.0      P_31      
32         100.0      P_32      

[STATUS]
;ID        Setting   
[PATTERNS]
;ID        Multipliers

1 1.000000 1.200000 1.400000 1.600000 1.400000 1.200000
1 1.000000 0.800000 0.600000 0.400000 0.600000 0.800000

P_10 0.638119 0.588836 0.573659 0.498670 0.545358 0.456924
P_10 0.480407 0.487098 0.548763 0.613002 0.617528 0.734611
P_10 0.772719 0.875661 1.018227 0.946450 1.061176 1.161836
P_10 1.185064 1.155408 1.199427 1.254293 1.198977 1.150020
P_10 1.076060 1.105371 1.038381 0.999294 0.850464 0.917785
P_10 0.842715 0.867329 0.865987 0.866318 0.983580 0.850746
P_10 1.005341 0.962532 0.973951 1.018849 0.962055 1.013963
P_10 1.067919 0.984999 0.890439 0.875579 0.818151 0.733432
P_10 0.667745 0.607421 0.588841 0.534723 0.461460 0.501833
P_10 0.519820 0.482998 0.558249 0.606050 0.689502 0.701690
P_10 0.825676 0.857925 0.990991 1.039955 1.085081 1.175121
P_10 1.180778 1.106673 1.167660 1.157178 1.083289 1.178050
P_10 1.116677 1.052373 1.126308 0.958879 0.958822 0.931757
P_10 0.896489 0.946323 0.876864 0.984571 0.952675 0.940694
P_10 1.037584 1.045393 1.078014 1.027053 1.038507 1.125929
P_10 1.040450 1.011866 0.899717 0.873145 0.801313 0.769459
P_10 0.694146 0.674412 0.609346 0.549869 0.501857 0.513675
P_10 0.515877 0.553312 0.503770 0.590265 0.617720 0.803819
P_10 0.846949 0.911324 0.945667 1.081879 1.181299 1.052161
P_10 1.162240 1.072635 1.139854 1.154439 1.175485 1.181316
P_10 1.107911 1.172732 1.057617 1.037825 1.058614 0.959370
P_10 0.961355 0.973991 0.953243 0.925127 1.000112 0.973111
P_10 0.960838 1.025485 1.085261 1.052386 1.064039 1.094528
P_10 1.048327 0.969967 0.946405 0.941357 0.867720 0.784816
P_10 0.670165 0.724692 0.498381 0.529610 0.523481 0.490195
P_10 0.506269 0.550030 0.569948 0.596910 0.690922 0.716579
P_10 0.886013 0.923401 0.979104 1.046744 1.075120 1.136865
P_10 1.132445 1.168611 1.274638 1.238628 1.138981 1.040894
P_10 1.088383 0.965327 0.924343 0.989475 1.011504 0.854602
P_10 0.931465 0.861811 0.879524 1.011511 1.006255 1.025708
P_10 0.962870 1.040145 1.053600 0.972422 1.035333 1.136705
P_10 1.027899 0.979531 1.039146 0.841125 0.903780 0.816965
P_10 0.712816 0.659565 0.607961 0.508280 0.540956 0.510113
P_10 0.533229 0.563985 0.542465 0.666170 0.723538 0.854771
P_10 0.894704 0.969256 1.025400 1.192354 1.161973 1.187487
P_10 1.340766 1.327300 1.276418 1.366880 1.292320 1.205055
P_10 1.282543 1.197830 1.020366 1.104668 0.984264 0.981678
P_10 0.937822 0.983059 0.984326 1.033548 0.988342 0.948480
P_10 1.043987 1.098151 1.011104 0.950711 1.045499 0.972250
P_10 0.958558 0.959159 0.915757 0.944448 0.826233 0.773861
P_10 0.743282 0.678809 0.595534 0.594563 0.591684 0.580788
P_10 0.511137 0.498905 0.499926 0.586149 0.649559 0.674727
P_10 0.645264 0.823110 0.852045 0.940986 0.974232 0.976962
P_10 1.140837 1.071637 1.076980 1.117305 1.206733 1.140906
P_10 0.958700 1.168870 0.980004 1.125185 1.002829 1.008697
P_10 0.998234 0.866161 0.887145 1.043969 1.014272 1.037317
P_10 0.996692 1.099761 1.028538 1.041672 0.920933 0.914564
P_10 0.915766 0.893532 0.818109 0.716859 0.731272 0.697511
P_10 0.747542 0.679090 0.548516 0.561160 0.564438 0.561460
P_10 0.550923 0.504594 0.574549 0.552258 0.570507 0.599858
P_10 0.625563 0.670604 0.783838 0.777759 0.836159 0.941031
P_10 0.849806 1.020469 1.070012 1.105682 1.067947 0.985203
P_10 1.084347 1.049917 1.054555 0.910273 1.004253 0.910250
P_10 0.927374 0.878659 0.986372 0.921513 0.858066 0.918897
P_10 0.977284 0.948098 0.882342 0.992809 0.975915 0.916311
P_10 0.876389 0.998564 0.887575 0.868870 0.749633 0.822720
P_10 0.652020 0.538792 0.537463 0.527865 0.524686 0.463271
P_10 0.475271 0.484616 0.531175 0.625831 0.685227 0.761679
P_10 0.837481 0.949357 0.984156 1.080475 1.125149 1.070162
P_10 1.245240 1.193919 1.296909 1.270421 1.376314 1.144538
P_10 1.053346 1.071182 1.083753 0.976293 0.873481 0.848167
P_10 0.778695 0.967680 0.985114 0.945407 0.858426 0.948694
P_10 1.003085 1.009430 0.867242 1.075543 1.183458 1.003018
P_10 0.993017 1.057847 0.966813 0.919729 0.872384 0.826415
P_10 0.701652 0.590977 0.598726 0.585399 0.489922 0.501933
P_10 0.499467 0.515944 0.539537 0.640206 0.685146 0.805594
P_10 0.815887 0.910829 0.978238 1.028137 1.104623 1.118650
P_10 1.226247 1.211649 1.239010 1.193183 1.093076 1.155013
P_10 1.121800 1.123403 1.037506 1.030250 0.985052 0.855443
P_10 0.928697 0.965280 0.928032 0.976743 0.908153 0.954318
P_10 1.057652 1.077735 1.057366 1.065246 1.074915 1.159480
P_10 1.050240 0.882866 0.963410 0.889634 0.819128 0.786041
P_10 0.723659 0.630832 0.625505 0.549422 0.504211 0.476229
P_10 0.506232 0.527421 0.621637 0.612647 0.653029 0.750793
P_10 0.926339 0.869251 0.968901 1.006088 1.118644 1.112857
P_10 1.125739 1.220386 1.163516 1.167790 1.151580 1.220696
P_10 1.099353 1.063929 1.116414 1.101985 1.049395 0.979606
P_10 0.938992 0.980977 0.986780 0.991510 0.934081 0.921319
P_10 1.078894 1.045498 1.125716 1.006683 1.065919 1.108313
P_10 1.006512 0.981371 1.051061 0.953320 0.803223 0.730612
P_10 0.753950 0.651218 0.586585 0.522140 0.498642 0.468423
P_10 0.503706 0.545571 0.573351 0.638940 0.666765 0.797221
P_10 0.765110 0.907397 1.048120 1.075215 1.100774 1.128719
P_10 1.211508 1.186856 1.128099 1.194393 1.149690 1.122947
P_10 1.192702 1.052059 1.012296 0.953857 0.943421 0.937218
P_10 0.975932 0.956018 0.964529 1.030498 0.975875 1.066076
P_10 1.049550 0.999276 1.115316 1.175617 1.077681 1.048251
P_10 1.024172 1.035783 1.052052 0.849895 0.857615 0.806200
P_10 0.705195 0.639992 0.570577 0.580534 0.515212 0.511889
P_10 0.534259 0.552410 0.601229 0.623763 0.777817 0.770411
P_10 0.904659 1.083191 1.114051 1.368062 1.449057 1.184270
P_10 1.192954 1.429408 1.334063 1.366589 1.267638 1.175568
P_10 1.223197 1.123129 1.096694 1.119992 0.950237 1.011159
P_10 0.993246 0.962208 0.971290 1.035964 1.004473 0.995841
P_10 1.011939 1.107802 1.062063 1.155031 1.037813 0.998576
P_10 0.973482 0.976170 0.910976 0.896851 0.822978 0.845636
P_10 0.697606 0.704200 0.674394 0.605678 0.561794 0.549773
P_10 0.519306 0.552468 0.577319 0.534938 0.664080 0.696364
P_10 0.701630 0.811380 0.895034 0.993480 0.994423 1.081225
P_10 1.140387 1.126335 1.131006 1.177998 1.105266 1.110888
P_10 1.026914 1.107072 1.123922 1.128578 1.014191 0.918216
P_10 1.012239 1.033696 1.004480 1.036783 1.051304 0.919516
P_10 1.033014 1.002402 0.988665 1.048577 1.059771 0.931610
P_10 0.913001 0.911717 0.868067 0.786353 0.761392 0.718174
P_10 0.739126 0.657869 0.635628 0.576126 0.532944 0.580440
P_10 0.544306 0.545126 0.548697 0.588493 0.573012 0.611831
P_10 0.698249 0.666647 0.718797 0.771991 0.819549 0.964261
P_10 0.971216 1.038146 1.047646 1.120167 1.063594 1.040645
P_10 0.978987 0.986178 1.088728 1.075846 0.990754 0.908048
P_10 0.873646 0.922720 0.938766 0.930778 0.995328 0.922495
P_10 1.017328 1.030542 0.978967 1.065934 0.995583 1.030941
P_10 0.946488 0.821179 0.937085 0.790833 0.739901 0.764088
P_10 0.685202 0.656806 0.559125 0.554608 0.501457 0.501520
P_10 0.510742 0.531986 0.564220 0.651645 0.624525 0.772125
P_10 0.800732 0.900316 1.018716 1.125072 1.157765 1.150561
P_10 1.213291 1.349715 1.352329 1.310368 1.209432 1.076629
P_10 1.189768 1.044068 1.074850 1.057327 0.883058 0.957221
P_10 0.880143 0.887859 0.928802 0.870465 0.969745 0.988722
P_10 0.892378 1.009469 0.998340 1.085598 1.009675 1.137702
P_10 1.080402 0.992956 0.995967 0.903648 0.924582 0.788064
P_10 0.718475 0.666077 0.617486 0.516394 0.506922 0.507969
P_10 0.496048 0.499683 0.577375 0.614085 0.647910 0.793341
P_10 0.828805 0.848419 0.934908 1.055469 1.041158 1.113735
P_10 1.159633 1.345484 1.143990 1.216887 1.169506 1.148155
P_10 1.054154 1.164370 1.052473 1.024520 0.960936 0.989900
P_10 1.003973 0.988108 0.943394 1.000844 1.019755 1.147988
P_10 1.103951 1.008162 1.009286 1.153750 1.051624 1.023312
P_10 1.052403 0.974222 1.029078 0.956772 0.793144 0.759998
P_10 0.668998 0.611587 0.589557 0.573845 0.531141 0.492917
P_10 0.504621 0.551113 0.553627 0.606417 0.684292 0.839779
P_10 0.882653 0.874583 0.887616 1.056582 1.163551 1.172455
P_10 1.193438 1.370383 1.306068 1.309614 1.099827 1.068566
P_10 1.234170 1.205837 1.108157 1.086576 1.113688 1.142341
P_10 1.024580 1.008141 0.947755 1.009239 0.944141 1.072138
P_10 0.986202 1.074713 1.068324 0.967386 1.057124 0.917078
P_10 1.115361 0.921664 0.959920 0.882032 0.849215 0.788150
P_10 0.700511 0.650248 0.574769 0.517061 0.527418 0.504005
P_10 0.530675 0.552657 0.555295 0.621091 0.700251 0.686359
P_10 0.876331 1.038026 1.085048 1.074035 1.129266 1.301118
P_10 1.227949 1.263406 1.183538 1.164198 1.299698 1.140797
P_10 1.193220 1.038812 1.043697 0.995250 1.030139 1.041550
P_10 1.013218 0.893173 0.919073 0.978612 1.029823 1.129400
P_10 1.045651 1.008592 1.119880 0.990078 1.045517 1.009349
P_10 1.050366 1.014075 0.923239 0.864465 0.917938 0.785619
P_10 0.797662 0.668862 0.635888 0.592661 0.547621 0.557760
P_10 0.574652 0.574069 0.599789 0.615329 0.703397 0.893270
P_10 0.897446 1.046918 1.131574 1.215407 1.275670 1.317668
P_10 1.248110 1.397410 1.274833 1.351273 1.324046 1.239713
P_10 1.283798 1.041079 1.074193 1.110668 1.058575 1.028071
P_10 1.038226 1.029107 1.021166 1.010952 1.074586 1.065068
P_10 0.966251 1.099431 1.083358 1.087222 1.116698 0.964929
P_10 1.040747 0.921672 0.990667 0.891142 0.907277 0.831342
P_10 0.726009 0.737277 0.672611 0.633852 0.552985 0.538467
P_10 0.562915 0.561623 0.543077 0.671447 0.622390 0.740060
P_10 0.756671 0.807948 0.803722 0.921120 0.938600 1.110595
P_10 1.081792 1.161261 1.136165 1.160548 1.120759 1.162622
P_10 1.197050 1.101958 1.127356 1.133976 1.143228 0.993492
P_10 1.042122 1.064613 1.057249 0.944945 1.048312 1.024051
P_10 1.106764 0.991397 1.064285 0.994285 0.946821 0.951106
P_10 0.954963 0.859477 0.963753 0.765475 0.774280 0.749135
P_10 0.805234 0.707756 0.600327 0.629298 0.619404 0.592048
P_10 0.570134 0.480326 0.615511 0.604123 0.623585 0.595398
P_10 0.706203 0.694578 0.760084 0.780892 0.895357 1.015761
P_10 1.074224 1.058484 1.093273 1.086925 0.999201 1.092594
P_10 1.111374 1.100387 0.963694 1.107739 0.984837 0.910862
P_10 0.971249 0.931050 0.927410 0.893151 0.962393 0.951742
P_10 1.091313 0.923943 1.029801 1.033162 0.935130 1.042404
P_10 0.974061 0.977509 0.980917 0.850230 0.806067 0.717651
P_10 0.691402 0.604697 0.635270 0.548894 0.570632 0.499264
P_10 0.496346 0.543683 0.547852 0.575978 0.678841 0.807103
P_10 0.808094 0.871009 0.966800 1.032242 1.094543 1.296161
P_10 1.202802 1.257762 1.182773 1.249254 1.299985 1.325877
P_10 1.100493 1.201435 1.103982 1.041474 1.002631 0.954167
P_10 0.914195 0.870957 0.913691 0.906481 1.041926 0.976520
P_10 1.021619 1.006039 1.125727 1.100016 1.034630 1.183295
P_10 1.051943 1.032932 1.003833 0.989425 0.827963 0.741225
P_10 0.758769 0.639651 0.662835 0.555265 0.490064 0.516616
P_10 0.524163 0.546171 0.573454 0.658265 0.712572 0.720475
P_10 0.869241 0.883628 0.987675 1.068447 1.088860 1.178986
P_10 1.185306 1.249900 1.279740 1.220202 1.243455 1.157186
P_10 1.125017 1.085739 1.073577 1.040793 1.068904 1.002224
P_10 0.920372 0.894459 1.027314 0.956124 0.993244 0.970119
P_10 1.060033 1.095707 1.114557 1.115994 1.071774 1.105603
P_10 1.117656 1.033095 1.005073 0.836427 0.854702 0.802218
P_10 0.726472 0.640369 0.638853 0.545618 0.488600 0.494072
P_10 0.520515 0.583912 0.626625 0.669209 0.694437 0.864473
P_10 0.876969 0.911464 1.027614 0.961351 1.130370 1.170256
P_10 1.279599 1.269201 1.216083 1.169651 1.164359 1.230695
P_10 1.210968 1.125932 1.122564 1.086426 1.015205 0.949983
P_10 1.106687 1.002674 1.098431 1.000910 0.992393 1.039129
P_10 1.034497 1.083824 1.086533 1.160974 1.109245 1.142665
P_10 1.045099 0.974987 1.038544 0.911252 0.866205 0.852612
P_10 0.729113 0.666354 0.568712 0.580087 0.513267 0.513270
P_10 0.520991 0.571052 0.563165 0.631632 0.711989 0.740034
P_10 0.938525 0.954180 1.040503 1.131716 1.148696 1.077115
P_10 1.323460 1.266755 1.051517 1.227381 1.197769 1.152046
P_10 1.130205 1.088702 1.066880 0.991687 1.005305 1.080280
P_10 1.077789 1.004016 0.919121 0.988432 1.000586 1.049208
P_10 1.057183 1.055979 0.950750 1.175488 1.141011 1.047029
P_10 1.104942 1.041234 0.943940 1.011147 0.929737 0.805907
P_10 0.749736 0.719647 0.613942 0.570852 0.535953 0.514796
P_10 0.566142 0.568410 0.619487 0.661576 0.780001 0.852667
P_10 0.988176 1.018030 1.143319 1.249348 1.302809 1.302720
P_10 1.553816 1.264899 1.218456 1.299365 1.301088 1.242722
P_10 1.170717 1.222630 1.180810 1.119402 0.987644 1.118462
P_10 1.003943 1.001218 0.989284 1.008455 1.155541 1.008242
P_10 1.040845 1.062197 1.051112 1.132063 1.080359 1.071244
P_10 1.123355 1.077613 1.037912 0.912286 0.819666 0.823491
P_10 0.804280 0.715601 0.672809 0.595082 0.588175 0.644112
P_10 0.615157 0.633892 0.561294 0.614632 0.601100 0.737067
P_10 0.763288 0.738398 0.928932 1.000443 1.081825 1.137988
P_10 1.046985 1.178198 1.148661 1.075666 1.132888 1.181562
P_10 1.126027 1.147088 1.132973 1.142848 1.076843 1.099805
P_10 1.127143 1.118554 0.978805 1.012926 1.053858 1.065337
P_10 0.994754 1.090915 0.964706 1.043551 0.994835 1.023419
P_10 1.019728 0.881536 0.867474 0.773924 0.800791 0.697557
P_10 0.727671 0.685329 0.614636 0.588794 0.557879 0.616775
P_10 0.552326 0.544727 0.546321 0.596615 0.583631 0.634379
P_10 0.621149 0.744780 0.772901 0.825048 0.969320 0.919740
P_10 0.972990 1.016477 1.133853 1.019471 1.125946 1.102404
P_10 1.077880 1.054533 1.114896 1.043264 1.029054 1.041413
P_10 0.969930 0.988439 0.938646 0.972801 0.941625 1.042891
P_10 0.988985 0.985017 1.107110 1.105884 0.991146 1.004285
P_10 1.068505 0.983062 0.936899 0.964894 0.795306 0.773720
P_10 0.690258 0.640725 0.594527 0.586050 0.502774 0.537137
P_10 0.551939 0.614568 0.589524 0.607899 0.754690 0.810115
P_10 0.875853 0.897899 0.982869 1.060015 1.266375 1.106994
P_10 1.171764 1.335177 1.455009 1.398872 1.288772 1.277439
P_10 1.219308 1.098504 1.260056 1.109447 1.071463 1.071078
P_10 0.926187 0.949250 1.014982 0.948394 1.045688 1.032873
P_10 1.053735 1.008552 1.054677 1.113721 1.110627 1.216246
P_10 1.110537 1.109317 1.005861 0.881093 0.953449 0.807439
P_10 0.766178 0.688489 0.589913 0.525510 0.547581 0.546214
P_10 0.517560 0.588460 0.559740 0.666124 0.720335 0.801454
P_10 0.821575 0.937090 1.022713 1.061755 1.247229 1.174610
P_10 1.246502 1.252693 1.242762 1.278523 1.163658 1.161356
P_10 1.170000 1.114252 1.022135 1.077473 1.043264 1.043054
P_10 0.945715 1.010066 0.987573 1.050751 1.008856 1.051230
P_10 1.039077 1.053950 1.211278 1.097961 1.146654 1.122946
P_10 1.151097 1.046770 1.025640 0.968476 0.919192 0.791951
P_10 0.743714 0.587294 0.590989 0.515519 0.501886 0.580519
P_10 0.515437 0.559203 0.572711 0.708490 0.782089 0.798381
P_10 0.881533 0.999282 1.067907 1.146785 1.109595 1.136637
P_10 1.220336 1.230611 1.256453 1.303285 1.298309 1.221312
P_10 1.214044 1.227443 1.135085 1.034754 1.058966 1.136926
P_10 1.023381 1.023285 0.987283 1.087438 0.993086 1.114508
P_10 1.010606 0.989350 1.143024 1.127893 1.084430 1.121967
P_10 1.028116 1.072856 1.024189 0.983711 0.922778 0.804596
P_10 0.751986 0.640114 0.619248 0.538911 0.525427 0.559467
P_10 0.528077 0.537104 0.582354 0.647676 0.750591 0.822081
P_10 0.931717 0.947529 1.022524 1.159477 1.202571 1.176484
P_10 1.246205 1.238716 1.282195 1.164851 1.146764 1.193886
P_10 1.093679 1.038888 1.118141 1.080026 1.079036 1.003781
P_10 1.055375 0.935405 1.062060 1.042698 1.087076 1.105896
P_10 1.192569 0.996428 1.125461 1.152656 1.108257 1.176241
P_10 1.075809 1.087778 1.017063 0.974042 0.874673 0.775742
P_10 0.788429 0.682002 0.664580 0.576638 0.562638 0.516082
P_10 0.531073 0.578955 0.576681 0.739473 0.829581 0.902815
P_10 0.993982 1.020435 1.129309 1.254413 1.191408 1.246141
P_10 1.257167 1.443635 1.420281 1.358334 1.463413 1.248414
P_10 1.269998 1.248133 1.187542 1.025376 1.054655 1.135397
P_10 1.128353 1.022052 1.036150 0.979544 1.077376 1.151730
P_10 1.147805 1.062533 1.099818 1.194638 1.087195 1.050849
P_10 1.113884 1.030842 0.978803 0.894253 0.867912 0.911281
P_10 0.806013 0.781252 0.714960 0.616193 0.611921 0.601647
P_10 0.570295 0.528910 0.605219 0.609311 0.671826 0.704500
P_10 0.874440 0.825850 0.960035 1.011728 1.050070 1.107054
P_10 1.169251 1.185113 1.245169 1.227684 1.354089 1.183155
P_10 1.262067 1.149233 1.115940 1.142388 1.052543 1.034306
P_10 1.067553 1.093262 0.970077 1.084370 1.071760 1.151033
P_10 1.110280 1.128318 1.113588 1.084341 1.025525 0.939982
P_10 1.024534 0.979609 0.839659 0.979471 0.914301 0.759287
P_10 0.716255 0.718037 0.675072 0.621270 0.607829 0.629449
P_10 0.588669 0.591189 0.559375 0.584202 0.605857 0.618173
P_10 0.698535 0.734381 0.760224 0.905927 0.918795 0.916794
P_10 1.002159 1.020911 1.196479 1.136771 1.079565 1.168157
P_10 1.188670 1.152727 1.109108 1.077775 1.039580 0.969395
P_10 1.015984 0.896873 0.930617 1.131845 1.030479 1.011213
P_10 1.006884 0.990456 1.157753 1.050989 1.184090 1.039877
P_10 1.020958 0.946266 0.992382 0.922906 0.829917 0.820621
P_10 0.739816 0.572687 0.582410 0.603531 0.572603 0.557657
P_10 0.475400 0.567294 0.523045 0.633235 0.719256 0.805392
P_10 0.886309 0.882496 0.968027 1.148827 1.295289 1.312995
P_10 1.315770 1.336609 1.300848 1.342186 1.293898 1.403620
P_10 1.280948 1.320869 1.146716 1.098691 0.955352 0.980860
P_10 0.997583 0.968173 1.002191 0.998993 0.944978 0.948127
P_10 1.041223 1.186419 1.167338 1.093116 1.185347 1.083555
P_10 1.115200 0.992327 1.030407 0.975411 0.967635 0.805916
P_10 0.850592 0.654970 0.578346 0.550060 0.560415 0.546632
P_10 0.513941 0.565260 0.563269 0.652566 0.740669 0.759042
P_10 0.814921 0.928928 1.112414 1.076654 1.181901 1.193392
P_10 1.391863 1.292646 1.362519 1.308691 1.276119 1.360593
P_10 1.162584 1.089231 1.092082 1.030868 1.061411 1.003931
P_10 1.019760 1.049700 1.032901 0.926722 1.042199 1.040316
P_10 1.111603 1.137278 1.097385 1.178666 1.155723 1.083553
P_10 1.181357 1.059815 1.106838 0.936423 0.901544 0.803769
P_10 0.763476 0.666130 0.547934 0.604609 0.506515 0.493358
P_10 0.517226 0.584882 0.552345 0.663166 0.786224 0.906300
P_10 1.009956 0.987982 1.099793 1.208552 1.267249 1.147928
P_10 1.429408 1.315205 1.363454 1.212524 1.304470 1.325208
P_10 1.281988 1.187311 1.232804 1.177711 1.093897 1.053192
P_10 1.029840 1.077771 1.053974 1.118160 1.023167 1.043241
P_10 1.096188 1.144769 1.252290 1.233086 1.186692 1.207513
P_10 1.242673 1.132327 1.065619 1.001405 0.946446 0.835097
P_10 0.730505 0.732659 0.618437 0.619752 0.558944 0.485461
P_10 0.526234 0.525446 0.598221 0.686490 0.665434 0.779434
P_10 0.907470 1.068486 1.099923 1.107522 1.375236 1.149703
P_10 1.357263 1.268532 1.329304 1.174648 1.292149 1.227865
P_10 1.179117 1.197377 1.138032 0.952516 1.066259 1.051209
P_10 1.086505 1.031995 0.956409 1.080194 1.083068 1.088429
P_10 1.047155 1.154948 1.137469 1.126346 1.194840 1.237611
P_10 1.136304 1.042348 1.010451 0.920301 0.910321 0.862724
P_10 0.805396 0.679506 0.616659 0.598274 0.558549 0.568086
P_10 0.541423 0.603950 0.602971 0.716071 0.748633 0.866582
P_10 1.066715 1.103843 1.100500 1.260678 1.214580 1.367912
P_10 1.350271 1.437732 1.385322 1.420824 1.408986 1.356783
P_10 1.345823 1.308404 1.154651 1.175546 1.185434 1.157528
P_10 1.047056 1.049592 0.997900 1.139074 1.087883 1.057606
P_10 1.098957 1.115331 1.140810 1.147532 1.137497 1.068831
P_10 1.045217 0.995236 1.013697 1.033774 0.906566 0.863692
P_10 0.833029 0.758797 0.717392 0.633506 0.616816 0.634694
P_10 0.577757 0.582735 0.570658 0.594171 0.726432 0.679615
P_10 0.785537 0.816582 1.077558 1.026668 1.077112 1.304838
P_10 1.144743 1.134598 1.198216 1.153662 1.188543 1.224706
P_10 1.149907 1.308114 1.119090 1.137368 1.165200 1.053149
P_10 1.117352 1.133041 1.167465 1.029547 1.118218 1.142616
P_10 1.136414 1.064781 1.095745 1.081191 1.108974 1.011616
P_10 1.068957 0.949906 1.031296 0.945132 0.825816 0.763375
P_10 0.769824 0.755924 0.664135 0.595604 0.630396 0.613284
P_10 0.606588 0.601600 0.571860 0.587023 0.562972 0.643811
P_10 0.665380 0.752201 0.800304 0.861855 0.911951 0.989599
P_10 1.024168 1.062896 1.099045 1.128086 1.241450 1.123447
P_10 1.261950 1.157474 1.130387 1.047307 0.948060 1.100255
P_10 1.116192 1.071071 0.968354 0.978693 1.018869 0.975612
P_10 1.104022 1.060872 1.035719 0.974638 1.113739 1.097006
P_10 1.090990 1.035059 1.003056 1.012596 0.924134 0.759720
P_10 0.708254 0.599055 0.649882 0.564691 0.565532 0.524542
P_10 0.537564 0.531667 0.630176 0.647172 0.738574 0.785402
P_10 0.865742 1.094522 1.183084 1.172056 1.219990 1.243886
P_10 1.308045 1.413180 1.390239 1.428169 1.233946 1.401441
P_10 1.229943 1.119213 1.242930 1.052245 1.049800 0.955146
P_10 0.972135 1.072873 1.016229 0.933690 0.959604 1.080881
P_10 1.064143 1.123665 1.182914 1.162352 1.304263 1.164233
P_10 1.156113 1.132873 1.080251 0.950802 0.898863 0.842720
P_10 0.804614 0.623983 0.625093 0.556754 0.605195 0.582289
P_10 0.546348 0.564231 0.642401 0.655678 0.698753 0.844846
P_10 0.937139 1.050176 0.973727 1.195886 1.210919 1.245386
P_10 1.250046 1.329511 1.330774 1.332459 1.285861 1.284077
P_10 1.321546 1.144163 1.208934 1.088850 1.068779 1.039109
P_10 0.948289 0.974451 0.939913 1.023603 1.064509 1.171852
P_10 1.176033 1.154999 1.162220 1.223797 1.194119 1.207591
P_10 1.203809 1.135981 0.981968 1.095259 0.924380 0.830701
P_10 0.788145 0.702324 0.607840 0.601339 0.584932 0.618651
P_10 0.546815 0.571927 0.635608 0.669931 0.787408 0.916372
P_10 0.953401 1.030287 1.188493 1.110330 1.345652 1.248816
P_10 1.297171 1.373808 1.241404 1.323323 1.286907 1.260395
P_10 1.242138 1.227388 1.125581 1.073953 1.139165 1.035109
P_10 0.960443 1.166200 1.025471 1.060895 1.048625 1.134552
P_10 1.038997 1.142587 1.243193 1.132801 1.174448 1.106300
P_10 1.084617 1.072800 1.099714 0.950748 0.923231 0.901795
P_10 0.704233 0.692106 0.644841 0.592392 0.537441 0.598975
P_10 0.580508 0.577574 0.613002 0.664907 0.716567 0.886781
P_10 0.870744 1.001948 1.057423 1.203980 1.196694 1.241479
P_10 1.363758 1.424735 1.228780 1.174892 1.336565 1.135210
P_10 1.264103 1.137325 1.063309 1.095549 1.076307 1.027107
P_10 0.996682 1.044226 1.033759 1.007593 0.998649 1.033118
P_10 1.081065 1.064360 1.187201 1.256341 1.227158 1.088269
P_10 1.188446 1.132066 1.019164 0.962415 0.924212 0.882883
P_10 0.758506 0.667937 0.664649 0.637229 0.585061 0.557339
P_10 0.579277 0.626744 0.685341 0.705205 0.836901 0.889758
P_10 1.029447 1.221481 1.103371 1.283423 1.378379 1.440294
P_10 1.416291 1.425686 1.364286 1.374713 1.428358 1.438161
P_10 1.252757 1.141586 1.307893 1.230718 1.183277 1.127652
P_10 1.156452 1.133005 1.207390 1.127885 1.058247 1.220841
P_10 1.131184 1.160852 1.230496 1.197873 1.099558 1.169117
P_10 1.157080 1.081960 1.128137 0.941783 0.979229 0.842784
P_10 0.866671 0.755224 0.682461 0.653999 0.563925 0.573758
P_10 0.568851 0.558308 0.585708 0.651499 0.693867 0.707681
P_10 0.870486 0.855609 0.987456 1.088942 1.037941 1.165527
P_10 1.173898 1.148568 1.296884 1.318016 1.246712 1.285214
P_10 1.193240 1.324447 1.223380 1.192007 1.188198 1.226271
P_10 1.152232 1.022342 1.034522 1.090067 1.028402 1.103211
P_10 1.198045 1.106234 1.203419 1.028448 1.069506 0.981737
P_10 1.056617 0.981547 1.010053 0.870030 0.918141 0.832568
P_10 0.810350 0.740786 0.637853 0.610585 0.616872 0.593395
P_10 0.575512 0.646575 0.664463 0.625434 0.635933 0.696209
P_10 0.691760 0.718369 0.849233 0.946120 0.982235 1.064631
P_10 1.072024 1.125964 1.145578 1.026915 1.108083 1.161154
P_10 1.113729 1.138739 1.108114 1.084305 1.113318 1.095234
P_10 0.981158 0.992478 1.128365 1.060794 0.984789 1.059968
P_10 1.001259 1.095382 1.076321 1.013019 1.229481 1.075828
P_10 0.960171 1.080303 0.989536 0.944937 0.900741 0.832530
P_10 0.774251 0.677941 0.607481 0.525079 0.579014 0.521564
P_10 0.502351 0.550308 0.572167 0.658131 0.762238 0.857432
P_10 0.873551 0.996966 1.154310 1.170466 1.278308 1.256806
P_10 1.343588 1.242873 1.424556 1.368880 1.453986 1.306758
P_10 1.223706 1.247001 1.106425 1.088780 1.115532 1.022360
P_10 1.012132 1.053929 1.007395 0.928927 1.131466 1.003886
P_10 1.046452 1.090856 1.147289 1.246999 1.237169 1.225561
P_10 1.101871 1.311007 1.027146 1.037890 0.950422 0.835556
P_10 0.794370 0.796420 0.650436 0.584332 0.657247 0.568074
P_10 0.651232 0.569606 0.604882 0.725040 0.763238 0.870602
P_10 0.984540 0.929296 1.082973 1.195983 1.244797 1.242992
P_10 1.227131 1.346439 1.392919 1.137407 1.323043 1.328876
P_10 1.221494 1.179461 1.212077 1.134946 1.134097 1.141538
P_10 0.981855 1.079409 0.979425 1.003120 0.992915 1.061962
P_10 1.150654 1.015848 1.130442 1.308312 1.253681 1.175694
P_10 1.171074 1.200409 1.158084 1.049445 0.954113 0.857765
P_10 0.832863 0.728614 0.688609 0.612739 0.524555 0.539740
P_10 0.617472 0.569139 0.632616 0.670162 0.781988 0.899869
P_10 1.030696 0.990285 1.175259 1.188905 1.301022 1.262491
P_10 1.194631 1.364128 1.503795 1.369997 1.412855 1.321992
P_10 1.179583 1.272673 1.251918 1.129935 1.017250 1.170024
P_10 1.075705 1.078315 1.123984 1.042804 1.037890 1.166254
P_10 1.104672 1.199605 1.200653 1.148528 1.213918 1.148322
P_10 1.157214 1.113135 1.053392 1.015057 0.905742 0.905332
P_10 0.779594 0.769074 0.655097 0.601494 0.555033 0.565768
P_10 0.576613 0.576985 0.653895 0.689630 0.782556 0.894542
P_10 0.947239 1.086073 1.134913 1.184539 1.299514 1.239937
P_10 1.357539 1.319874 1.210838 1.304640 1.242929 1.226936
P_10 1.189512 1.094685 1.191449 1.108873 1.067538 1.059850
P_10 1.135971 1.020537 1.023842 1.049650 1.064156 0.974019
P_10 1.239000 1.059508 1.272803 1.073999 1.157318 1.182371
P_10 1.190971 1.051908 1.068191 1.012601 0.921570 0.912726
P_10 0.713701 0.758489 0.652323 0.597351 0.620972 0.568443
P_10 0.560443 0.649604 0.702873 0.705662 0.896989 0.928838
P_10 0.948192 1.190075 1.166302 1.303073 1.433036 1.362044
P_10 1.502471 1.478345 1.480748 1.466130 1.386183 1.459674
P_10 1.399152 1.246371 1.203234 1.153448 1.212752 1.164733
P_10 1.161255 1.114388 1.109839 1.072121 1.074838 1.072298
P_10 1.249969 1.190423 1.182933 1.179753 1.183288 1.116625
P_10 1.149214 0.992030 1.040017 1.021826 0.931082 0.922892
P_10 0.835852 0.804311 0.695674 0.706736 0.661580 0.542099