; Filename: networks/Net1.inp
; WNTR: 0.1.6
; Created: 2019-04-09 13:22:17
[TITLE]
EPANET Example Network 1
A simple example of modeling chlorine decay. Both bulk and
wall reactions are included.

[JUNCTIONS]
;ID                      Elevation       Demand Pattern                 
 10                               710               0                            ;
 11                               710               0                            ;
 12                               700               0                            ;
 13                               695               0                            ;
 21                               700               0                            ;
 22                               695               0                            ;
 23                               690               0                            ;
 31                               700               0                            ;
 32                               710               0                            ;

[RESERVOIRS]
;ID                                   Head                  Pattern
 9                                800                            ;

[TANKS]
;ID                              Elevation           Init Level            Min Level            Max Level             Diameter           Min Volume Volume Curve        
 2                                850             120             100             150            50.5               0                        ;

[PIPES]
;ID                   Node1                Node2                              Length             Diameter            Roughness           Minor Loss               Status
 10                   10                   11                             10530              18             100               0                 Open   ;
 11                   11                   12                              5280              14             100               0                 Open   ;
 12                   12                   13                              5280              10             100               0                 Open   ;
 21                   21                   22                              5280              10             100               0                 Open   ;
 22                   22                   23                              5280              12             100               0                 Open   ;
 31                   31                   32                              5280               6             100               0                 Open   ;
 110                  2                    12                               200              18             100               0                 Open   ;
 111                  11                   21                              5280              10             100               0                 Open   ;
 112                  12                   22                              5280              12             100               0                 Open   ;
 113                  13                   23                              5280               8             100               0                 Open   ;
 121                  21                   31                              5280               8             100               0                 Open   ;
 122                  22                   32                              5280               6             100               0                 Open   ;

[PUMPS]
;ID                   Node1                Node2                Properties          
 9                    9                    10                   HEAD     1                      ;

[VALVES]
;ID                   Node1                Node2                            Diameter Type              Setting           Minor Loss

[TAGS]
;type      name       tag       

[DEMANDS]
;ID        Demand     Pattern   
10         0.0        P_10      
11         150.0      P_11      
12         150.0      P_12      
13         100.0      P_13      
21         150.0      P_21      
22         200.0      P_22      
23         150.0      P_23      
31         100.0      P_31      
32         100.0      P_32      

[STATUS]
;ID        Setting   
[PATTERNS]
;ID        Multipliers

1 1.000000 1.200000 1.400000 1.600000 1.400000 1.200000
1 1.000000 0.800000 0.600000 0.400000 0.600000 0.800000

P_10 0.616748 0.537617 0.403551 0.409763 0.381457 0.340828
P_10 0.347700 0.354602 0.408084 0.503854 0.532536 0.635887
P_10 0.759005 0.809587 0.892907 1.136051 1.184491 1.217147
P_10 1.251271 1.339405 1.334823 1.258522 1.276090 1.268892
P_10 1.259081 1.141781 1.060896 0.973650 0.955176 0.922369
P_10 0.934373 0.963316 0.821060 0.858109 0.839570 0.989877
P_10 0.973437 1.154390 1.075716 1.196476 1.138327 1.135056
P_10 1.083323 1.047074 0.882456 0.866374 0.838093 0.747581
P_10 0.662166 0.510973 0.460518 0.399964 0.372778 0.314195
P_10 0.357556 0.384332 0.390508 0.460312 0.626281 0.651603
P_10 0.768332 0.830943 0.875689 1.029399 1.157845 1.198405
P_10 1.194860 1.270868 1.179464 1.279297 1.209870 1.148109
P_10 1.135725 1.124464 1.047250 0.960664 0.989373 0.974429
P_10 0.814767 0.945342 0.901173 0.955690 0.974721 0.967521
P_10 1.082488 1.122740 1.077355 1.132766 1.044492 1.092749
P_10 1.046567 1.067946 1.052312 0.961316 0.831932 0.689089
P_10 0.654658 0.549558 0.413099 0.405293 0.351889 0.399097
P_10 0.367530 0.394544 0.392279 0.510247 0.597622 0.709242
P_10 0.848425 0.875050 0.992196 1.132562 1.113633 1.110591
P_10 1.129191 1.298519 1.209962 1.360394 1.072649 1.206241
P_10 1.169476 1.130048 1.051686 1.018184 1.064626 0.948751
P_10 1.000929 0.996666 0.960530 1.061444 1.002571 1.091107
P_10 1.078060 1.038304 1.099447 1.163369 1.182149 1.111659
P_10 0.976864 1.033447 1.027329 0.892078 0.820411 0.731889
P_10 0.644714 0.495392 0.473832 0.411659 0.339269 0.355572
P_10 0.341495 0.407817 0.456574 0.522249 0.549608 0.730728
P_10 0.766315 0.961613 1.000051 1.035477 1.095760 1.248413
P_10 1.188779 1.310166 1.234468 1.185088 1.211656 1.104721
P_10 1.132144 1.095270 1.054072 1.091844 0.925157 0.891360
P_10 0.933043 0.947018 0.996676 0.886577 1.028214 0.954409
P_10 1.068125 1.135234 1.017245 1.057097 1.084914 0.988077
P_10 1.111356 1.043846 0.993635 0.922813 0.910003 0.723246
P_10 0.669295 0.541795 0.470280 0.437306 0.390255 0.399068
P_10 0.379538 0.423566 0.467332 0.578151 0.655854 0.737939
P_10 0.961958 0.970092 1.051284 1.258616 1.335804 1.284911
P_10 1.326427 1.419383 1.391695 1.451758 1.334832 1.333279
P_10 1.283343 1.288047 1.189487 1.130922 1.014046 1.033209
P_10 0.985210 0.994791 0.963412 0.981940 1.072198 1.160450
P_10 1.074586 1.093584 1.075168 1.137545 1.085494 0.944059
P_10 1.045998 1.034910 1.030639 0.827860 0.822183 0.736372
P_10 0.697437 0.647270 0.531029 0.517019 0.437094 0.411043
P_10 0.422199 0.393987 0.392071 0.454534 0.477825 0.560432
P_10 0.611776 0.742310 0.826332 0.898939 1.018253 1.041758
P_10 1.081199 1.233185 1.243437 1.194506 1.173531 1.179927
P_10 1.028274 1.077297 1.006701 1.045198 0.996880 1.013027
P_10 0.959666 0.984864 1.140174 1.032319 0.981816 1.041820
P_10 1.099219 1.052787 1.041085 1.077907 1.003634 0.996820
P_10 0.988161 0.865565 0.854388 0.777849 0.677409 0.690726
P_10 0.641779 0.611685 0.483435 0.445393 0.432071 0.403325
P_10 0.362156 0.399320 0.404993 0.374431 0.414152 0.443430
P_10 0.501599 0.540922 0.566217 0.648797 0.786962 0.813600
P_10 0.846867 0.958127 1.089778 1.042269 1.049369 1.037013
P_10 1.026907 1.081468 0.947243 1.071271 0.941918 0.864544
P_10 0.892283 0.933146 0.844769 0.853296 0.883858 0.935344
P_10 1.022481 1.068303 1.109123 1.021367 0.951401 1.002104
P_10 1.047542 0.947975 0.979327 0.847401 0.757964 0.670716
P_10 0.565027 0.488310 0.440686 0.401546 0.353412 0.363140
P_10 0.323329 0.359308 0.381292 0.501141 0.526966 0.641391
P_10 0.712593 0.843000 1.009197 1.055582 1.185199 1.244616
P_10 1.254751 1.396968 1.391504 1.332806 1.443119 1.189015
P_10 1.260327 1.030930 1.025222 0.933736 1.017225 0.939893
P_10 0.920587 0.892325 0.850249 0.849644 0.950093 0.866662
P_10 0.993689 1.101082 1.098863 1.244365 1.063567 1.075729
P_10 1.137210 1.126265 1.042186 0.878389 0.827889 0.752527
P_10 0.613665 0.607470 0.496049 0.444725 0.386164 0.310797
P_10 0.362569 0.394011 0.433502 0.525763 0.548144 0.678115
P_10 0.782969 0.755303 1.002786 0.949092 1.150276 1.210566
P_10 1.247212 1.297919 1.211996 1.280217 1.108400 1.304268
P_10 1.185900 1.088612 1.067138 1.019877 0.862631 0.941121
P_10 0.929555 0.986940 0.977943 0.927522 1.029322 1.040903
P_10 1.030704 1.030319 1.130976 1.266117 1.305401 1.115612
P_10 1.040092 1.077813 1.107556 0.890966 0.794790 0.809968
P_10 0.626963 0.533057 0.447418 0.389683 0.361718 0.355266
P_10 0.349123 0.379198 0.444015 0.555524 0.579412 0.667449
P_10 0.839161 0.959290 1.071959 1.029214 1.191241 1.183248
P_10 1.281563 1.253558 1.236455 1.471958 1.080496 1.232894
P_10 1.150819 1.098894 1.062430 1.136513 0.950005 0.933725
P_10 1.041495 0.972961 1.001929 1.039147 1.029124 0.928681
P_10 1.048817 1.188786 1.100892 1.111185 1.137712 1.174654
P_10 1.097332 1.085113 0.925251 0.918096 0.799764 0.722427
P_10 0.605881 0.542511 0.495139 0.392668 0.387892 0.359597
P_10 0.360388 0.376791 0.450351 0.520525 0.581272 0.642829
P_10 0.820756 0.899326 1.026704 1.133713 1.124926 1.244537
P_10 1.322116 1.268721 1.258422 1.245988 1.138681 1.134721
P_10 1.177382 1.014773 0.986395 1.094707 0.947863 0.955233
P_10 0.982522 0.963517 0.959922 1.052196 1.036685 1.031259
P_10 1.067536 1.140663 1.059478 1.199037 1.100257 1.082591
P_10 1.180537 0.979625 1.010397 1.011780 0.886661 0.716895
P_10 0.608572 0.555870 0.466995 0.443637 0.390850 0.362416
P_10 0.392977 0.459422 0.517776 0.592113 0.670689 0.794607
P_10 0.944234 0.954743 1.148298 1.171512 1.302172 1.390180
P_10 1.444993 1.442839 1.400000 1.377561 1.258689 1.374509
P_10 1.337850 1.198258 1.086513 1.229796 1.089988 1.107590
P_10 1.117919 1.064126 1.106187 1.065047 1.105851 1.063855
P_10 1.081339 1.108805 1.018204 1.126468 1.096254 0.939071
P_10 1.029921 1.072353 0.890124 0.934695 0.773179 0.771814
P_10 0.761523 0.559989 0.563190 0.565749 0.459375 0.491205
P_10 0.403313 0.394301 0.426988 0.481292 0.499084 0.574628
P_10 0.677864 0.795477 0.855383 0.953775 1.041166 1.058104
P_10 1.088086 1.231314 1.221583 1.083729 1.190517 1.220781
P_10 1.091193 1.136499 1.113300 1.094148 1.109547 1.100998
P_10 1.036112 1.001438 1.050837 1.057017 1.100972 1.087204
P_10 1.114839 1.066321 1.128808 1.034056 0.975052 0.978565
P_10 0.965726 0.897131 0.864411 0.812483 0.773088 0.669816
P_10 0.610295 0.588652 0.480797 0.478515 0.445920 0.442138
P_10 0.380694 0.401446 0.372635 0.423624 0.427506 0.433471
P_10 0.470082 0.575164 0.585901 0.714526 0.798434 0.795948
P_10 0.945319 0.959026 0.991572 1.054295 1.056371 1.179348
P_10 1.038300 0.972568 1.118774 0.969174 1.023721 1.009851
P_10 0.917722 0.961006 0.994105 0.843531 0.936049 0.900446
P_10 1.098638 1.044156 1.004260 1.068929 1.040475 1.071647
P_10 1.083383 0.938415 0.934284 0.811903 0.859014 0.656721
P_10 0.596687 0.499444 0.437057 0.381735 0.360249 0.343147
P_10 0.369635 0.359248 0.412276 0.502096 0.530077 0.632502
P_10 0.768904 0.896244 0.989526 1.012115 1.165486 1.271392
P_10 1.345958 1.331580 1.365436 1.286441 1.443894 1.266709
P_10 1.143678 1.177928 1.123457 1.119309 0.922549 0.878226
P_10 0.881516 0.820369 0.875760 0.798100 0.867684 0.957858
P_10 1.005055 1.119566 1.054173 1.105593 1.245156 1.208679
P_10 1.173866 1.133202 0.895739 0.915693 0.985561 0.808784
P_10 0.607120 0.606542 0.503589 0.396476 0.395760 0.348169
P_10 0.333697 0.390095 0.378784 0.460366 0.622533 0.659981
P_10 0.834320 0.944617 0.925916 1.098260 0.984020 1.317484
P_10 1.182382 1.439187 1.300812 1.257097 1.250658 1.198176
P_10 1.153695 1.118183 1.123550 1.029090 1.046855 0.904823
P_10 0.921003 0.976836 1.031065 0.950804 1.053854 1.159517
P_10 1.027662 1.112719 1.247747 1.174717 1.198598 1.178661
P_10 1.015431 1.159435 1.048383 0.897186 0.837952 0.728977
P_10 0.636264 0.557828 0.461341 0.379238 0.392732 0.401528
P_10 0.394856 0.403120 0.441757 0.527899 0.598476 0.718483
P_10 0.707684 0.900244 0.997231 1.090581 1.185922 1.165300
P_10 1.335762 1.342592 1.403093 1.320221 1.232467 1.215447
P_10 1.278692 1.082605 1.069670 1.125914 1.042075 1.038453
P_10 1.046345 0.976229 1.025609 1.031008 0.969738 1.014263
P_10 1.136928 1.103118 1.125391 1.083855 1.069891 1.163615
P_10 1.179506 1.058054 1.016014 1.038938 0.816178 0.693057
P_10 0.744354 0.604993 0.474353 0.449059 0.380609 0.357711
P_10 0.375398 0.372762 0.467631 0.516779 0.630644 0.751301
P_10 0.885757 0.976858 1.019835 1.103462 1.193508 1.111631
P_10 1.272490 1.279131 1.143897 1.200829 1.254558 1.262084
P_10 1.112490 1.096689 0.968642 1.073702 1.040475 1.055915
P_10 1.018194 0.992602 1.029147 0.956586 1.098739 1.033259
P_10 1.073986 1.232947 1.101062 1.076751 1.188529 1.094882
P_10 0.996925 1.164679 0.969086 0.990656 0.839896 0.744508
P_10 0.654957 0.559088 0.490639 0.415034 0.374625 0.383933
P_10 0.384671 0.408985 0.511611 0.547837 0.665763 0.838673
P_10 0.894508 1.020602 1.131672 1.352011 1.487833 1.441157
P_10 1.446417 1.678356 1.442809 1.506461 1.330819 1.410311
P_10 1.376466 1.148586 1.235013 1.194460 1.041355 1.040532
P_10 1.058305 1.115369 0.999860 1.106827 1.101626 1.148586
P_10 1.112664 1.059679 1.088155 1.049535 1.067721 1.148240
P_10 1.064752 1.005367 1.000448 0.855658 0.806810 0.814790
P_10 0.700020 0.652122 0.591586 0.523924 0.447400 0.398401
P_10 0.391089 0.454669 0.403062 0.479932 0.498392 0.582172
P_10 0.670422 0.744731 0.809262 0.948386 1.040530 1.029303
P_10 1.045169 1.164973 1.296122 1.084324 1.191021 1.130011
P_10 1.088503 1.061503 1.149041 1.062853 0.976748 1.145391
P_10 1.071819 1.072778 0.987848 1.124198 1.026437 1.016397
P_10 1.022191 1.141926 1.107727 1.125320 0.998130 1.078208
P_10 1.008902 0.827495 0.924675 0.858583 0.765648 0.712710
P_10 0.625704 0.622049 0.556794 0.505753 0.456288 0.429722
P_10 0.419150 0.421842 0.393236 0.419063 0.451610 0.450615
P_10 0.503113 0.616754 0.614719 0.752408 0.847807 0.872849
P_10 0.926855 1.085234 1.076025 1.102111 1.027019 1.165335
P_10 1.167633 0.978523 1.074728 1.066060 0.948391 0.940934
P_10 0.946218 0.884805 0.982556 0.965361 0.937182 1.030001
P_10 1.101368 1.029188 1.005184 1.077670 1.019174 1.020150
P_10 1.051650 1.019877 0.908074 0.831959 0.807325 0.668297
P_10 0.589856 0.562539 0.454713 0.410505 0.399489 0.354608
P_10 0.385661 0.379051 0.434344 0.501368 0.616128 0.689686
P_10 0.766317 1.003043 0.988356 1.110659 1.345097 1.180453
P_10 1.344469 1.398272 1.382384 1.315257 1.356966 1.254737
P_10 1.311885 1.167290 1.200715 1.045086 1.030144 0.956261
P_10 0.888989 0.888877 0.793166 0.905183 0.875739 0.986287
P_10 1.058951 1.079464 1.101978 1.154779 1.228892 1.021968
P_10 1.141329 1.109855 1.057302 0.999454 0.800052 0.810269
P_10 0.665955 0.596393 0.514765 0.405855 0.382238 0.345755
P_10 0.366844 0.404329 0.437088 0.498649 0.571771 0.673153
P_10 0.829054 0.885221 1.012649 1.080558 1.100633 1.256231
P_10 1.343998 1.202529 1.314680 1.192284 1.284775 1.122765
P_10 1.222706 1.092579 0.997448 0.982069 0.987940 0.988817
P_10 1.041556 1.007647 1.009100 0.879351 1.052108 1.095778
P_10 1.146795 1.262023 1.113102 1.134844 1.080819 1.121213
P_10 1.075635 1.148654 1.002551 0.953094 0.936371 0.705794
P_10 0.640887 0.525772 0.490724 0.436245 0.362784 0.350780
P_10 0.358394 0.440354 0.458666 0.494852 0.615404 0.731642
P_10 0.816012 0.913644 1.041719 1.064134 1.216169 1.253586
P_10 1.201925 1.352466 1.228125 1.382818 1.342713 1.209084
P_10 1.179170 1.188629 1.086493 1.132597 1.084266 1.026095
P_10 1.025187 1.059484 1.024536 0.942842 1.053874 1.020941
P_10 1.184108 1.126535 1.057398 1.177849 1.211321 1.216804
P_10 1.165515 0.994386 1.050969 0.981432 0.793253 0.811304
P_10 0.693318 0.594553 0.472446 0.418907 0.379570 0.347697
P_10 0.412549 0.405515 0.453567 0.549528 0.673877 0.720585
P_10 0.826709 0.986156 1.169792 1.193897 1.236036 1.268831
P_10 1.315431 1.313985 1.325749 1.272052 1.262555 1.119673
P_10 1.147226 1.139138 1.110711 1.120952 1.060885 0.938574
P_10 0.916869 0.947371 0.936946 1.066979 1.051195 1.072019
P_10 1.114063 1.121327 1.137928 1.153801 1.185885 1.125374
P_10 1.090372 1.109838 1.050504 1.049011 0.829698 0.864633
P_10 0.685753 0.576309 0.547290 0.450894 0.396836 0.401460
P_10 0.396223 0.428457 0.508807 0.584666 0.701427 0.836108
P_10 0.929756 0.961720 1.238157 1.255681 1.402299 1.423017
P_10 1.486818 1.567764 1.559989 1.447550 1.494328 1.351371
P_10 1.236693 1.245620 1.264225 1.134273 1.114594 1.046212
P_10 1.060529 1.021800 1.118073 1.050366 1.071792 1.051404
P_10 1.065079 1.105241 1.152085 1.206709 1.180032 1.152215
P_10 1.074603 1.167289 0.953241 0.975474 0.799204 0.823474
P_10 0.692338 0.700549 0.617362 0.518530 0.516590 0.448732
P_10 0.441987 0.420222 0.444131 0.460859 0.550072 0.637407
P_10 0.616232 0.710762 0.896051 0.928806 0.873058 1.073823
P_10 1.179450 1.154272 1.252838 1.345764 1.246866 1.154443
P_10 1.220341 1.253118 1.159445 1.063728 1.130913 1.001178
P_10 1.018416 1.005205 1.125151 1.139858 1.084910 1.149414
P_10 1.101535 1.059956 1.171689 1.060577 1.066033 1.034626
P_10 1.011968 0.932808 0.934708 0.810873 0.749312 0.669113
P_10 0.640158 0.585954 0.574581 0.483410 0.447882 0.414432
P_10 0.396610 0.404722 0.414340 0.432146 0.459445 0.537837
P_10 0.538935 0.565301 0.686382 0.757024 0.869089 0.882716
P_10 0.963247 1.020500 1.132055 1.129266 1.084115 1.203164
P_10 1.125404 1.155995 1.172790 0.963733 1.161881 1.002974
P_10 0.990036 0.988659 0.994722 0.995968 1.007141 0.947639
P_10 1.021057 1.073581 1.130149 1.039774 1.108500 1.077516
P_10 1.047745 1.046750 0.945558 0.864017 0.820323 0.686699
P_10 0.547124 0.545309 0.524565 0.397155 0.386747 0.380881
P_10 0.375824 0.381455 0.478595 0.508440 0.570832 0.684526
P_10 0.806717 0.988839 1.048314 1.128767 1.225135 1.358157
P_10 1.324300 1.354166 1.537323 1.491698 1.425631 1.425421
P_10 1.313673 1.195968 1.173834 1.065791 1.000864 0.987002
P_10 0.918257 0.906513 0.970038 0.970492 0.988295 1.011388
P_10 1.047886 1.074628 1.178173 1.154446 1.262073 1.041241
P_10 1.304512 1.101451 1.008450 1.023191 0.867232 0.763616
P_10 0.655879 0.554547 0.534792 0.468029 0.369017 0.376079
P_10 0.367261 0.392116 0.424578 0.444766 0.612979 0.753494
P_10 0.889501 0.986588 0.987937 1.131496 1.160948 1.285879
P_10 1.287218 1.421173 1.326306 1.283012 1.272524 1.314109
P_10 1.191288 1.162187 1.099680 1.088527 0.999580 0.926505
P_10 1.009322 0.951338 0.945673 1.036114 0.997316 1.023103
P_10 1.014592 1.222471 1.224961 1.269098 1.235236 1.311792
P_10 1.170880 1.112274 1.046671 0.969082 0.882143 0.819168
P_10 0.660943 0.595507 0.479155 0.413400 0.399891 0.372904
P_10 0.415625 0.395184 0.501344 0.549662 0.580601 0.749831
P_10 0.826949 0.880534 1.065483 1.190326 1.253712 1.322008
P_10 1.388068 1.337424 1.444445 1.429420 1.354605 1.330525
P_10 1.410071 1.189407 1.219079 1.113171 1.097143 1.019133
P_10 0.999401 0.951004 0.970696 1.088983 1.055431 1.070053
P_10 1.184986 1.130927 1.009401 1.166390 1.197419 1.122698
P_10 1.134266 1.038635 1.050023 0.981422 0.920542 0.744980
P_10 0.734361 0.598718 0.517246 0.432043 0.432496 0.378769
P_10 0.365117 0.416210 0.484018 0.507384 0.658297 0.683893
P_10 0.907141 1.014420 1.158499 1.194184 1.244399 1.280343
P_10 1.204287 1.238666 1.447545 1.385584 1.291895 1.236521
P_10 1.240474 1.203904 1.171109 1.179240 1.161659 0.982457
P_10 0.975237 1.021388 1.071843 1.049851 1.037258 1.069766
P_10 1.154117 1.180645 1.047900 1.239049 1.188289 1.170693
P_10 1.129450 1.071845 1.028769 0.983927 0.951386 0.773169
P_10 0.632949 0.582421 0.547284 0.466014 0.418300 0.372790
P_10 0.418864 0.417973 0.510488 0.586369 0.679706 0.878377
P_10 0.959439 1.104672 1.248547 1.324984 1.469797 1.376237
P_10 1.640739 1.606315 1.422494 1.503918 1.458197 1.461986
P_10 1.347793 1.262604 1.222301 1.205793 1.135162 1.167471
P_10 1.129756 1.177963 1.009077 1.151914 1.197849 1.180693
P_10 1.286663 1.129590 1.150950 1.228471 1.185417 1.105462
P_10 1.035141 1.063908 1.086030 0.974752 0.920098 0.805999
P_10 0.731893 0.635657 0.591685 0.497224 0.444220 0.486415
P_10 0.429191 0.420712 0.467615 0.494326 0.553537 0.599204
P_10 0.698829 0.816389 0.849083 1.010553 1.031227 1.105362
P_10 1.139274 1.268692 1.144719 1.103100 1.361052 1.268957
P_10 1.335809 1.278444 1.061034 1.113335 1.133793 1.111848
P_10 1.132812 1.038251 0.968716 1.144988 1.121245 1.184073
P_10 1.173899 1.114967 1.143722 1.127564 1.082154 1.110925
P_10 0.972587 1.006759 0.921232 0.831257 0.736418 0.745764
P_10 0.638685 0.639442 0.542149 0.479740 0.449927 0.446189
P_10 0.443100 0.440850 0.385771 0.433977 0.455879 0.466274
P_10 0.532987 0.607506 0.671535 0.715322 0.815430 0.899228
P_10 0.903653 0.957647 1.050150 1.158002 1.166067 1.142856
P_10 1.158283 1.162307 1.109423 1.188598 0.987956 1.049927
P_10 0.984488 0.997005 1.045497 1.079102 1.031364 1.051545
P_10 1.031737 1.118335 1.100845 1.151160 1.105937 1.099276
P_10 1.001503 0.983779 0.977339 0.853666 0.838488 0.766351
P_10 0.663602 0.601949 0.524256 0.387131 0.372836 0.372490
P_10 0.391186 0.406833 0.457882 0.509316 0.577066 0.794537
P_10 0.758597 0.892517 1.155242 1.219649 1.189335 1.313794
P_10 1.354496 1.247606 1.514490 1.508704 1.348069 1.301654
P_10 1.363732 1.234517 1.140770 1.018331 1.086606 1.050655
P_10 0.965139 0.900670 0.893079 0.942298 1.060806 0.988684
P_10 1.112229 1.169198 1.144426 1.203360 1.276008 1.125167
P_10 1.178881 1.060407 1.082136 0.938338 0.903802 0.882051
P_10 0.692233 0.633804 0.498512 0.439716 0.385316 0.363628
P_10 0.354763 0.422890 0.461048 0.527221 0.613822 0.728090
P_10 0.861651 1.010230 1.045628 1.091409 1.137524 1.377203
P_10 1.392865 1.393256 1.365522 1.368040 1.209315 1.280051
P_10 1.233233 1.125543 1.166506 1.078905 1.069802 0.970587
P_10 1.075468 0.937268 1.025000 0.989990 1.019889 1.043987
P_10 1.156094 1.212628 1.234540 1.150560 1.270287 1.213302
P_10 1.187763 1.192203 1.182075 0.983120 0.840313 0.784150
P_10 0.710713 0.532036 0.500987 0.432853 0.411302 0.391620
P_10 0.415112 0.435184 0.498145 0.553559 0.702351 0.805277
P_10 0.751423 1.000870 1.130918 1.194156 1.186261 1.223385
P_10 1.309825 1.381170 1.365605 1.312429 1.355072 1.308454
P_10 1.245167 1.341539 1.118471 1.161052 1.067352 1.075004
P_10 1.142936 1.031328 1.174432 1.065538 1.165697 1.065836
P_10 1.175345 1.228424 1.246611 1.204549 1.144938 1.317243
P_10 1.133589 1.143395 1.031728 0.937457 0.879657 0.765222
P_10 0.669135 0.629878 0.528288 0.452460 0.401381 0.378218
P_10 0.408745 0.401149 0.482966 0.589206 0.678690 0.785664
P_10 0.833122 0.913929 1.029893 1.228846 1.295974 1.280837
P_10 1.271335 1.448787 1.432547 1.229572 1.371404 1.336161
P_10 1.253200 1.155732 1.085255 0.992871 0.994462 1.021026
P_10 1.058320 0.993095 1.102263 1.035479 0.981072 1.152721
P_10 1.181365 1.087866 1.030939 1.264327 1.310119 1.308989
P_10 1.227670 1.175168 1.179749 1.057055 0.945893 0.877011
P_10 0.734571 0.633076 0.535141 0.432284 0.438659 0.402149
P_10 0.373387 0.449457 0.497977 0.612905 0.777996 0.835963
P_10 1.062162 1.031383 1.304782 1.345954 1.472577 1.463635
P_10 1.667567 1.513590 1.540596 1.460863 1.491180 1.513962
P_10 1.351288 1.369523 1.284229 1.243509 1.087408 1.070353
P_10 1.166180 1.087695 1.110128 1.081300 1.241507 1.196495
P_10 1.113733 1.112022 1.179611 1.216686 1.191886 1.192083
P_10 1.096016 1.090566 1.063597 0.993475 0.933360 0.831458
P_10 0.769873 0.716501 0.599548 0.472820 0.528602 0.481473
P_10 0.451977 0.434172 0.452132 0.562297 0.572357 0.620405
P_10 0.726874 0.756176 0.909552 1.092894 1.064280 1.200176
P_10 1.159531 1.116768 1.303346 1.251801 1.237648 1.295529
P_10 1.291385 1.298187 1.270973 1.295037 1.109919 1.112718
P_10 1.048359 1.218518 1.177696 1.278708 1.101045 1.195607
P_10 1.226114 1.145099 1.283701 1.133039 1.117428 1.159945
P_10 1.041212 1.006614 0.876235 0.863792 0.771011 0.686377
P_10 0.680974 0.605727 0.585920 0.497149 0.497886 0.450732
P_10 0.421467 0.408751 0.413655 0.420573 0.463298 0.488730
P_10 0.528640 0.559654 0.672638 0.701886 0.797334 1.015988
P_10 1.082563 0.927787 1.132136 1.055770 1.208114 1.127245
P_10 1.169035 1.209162 1.084702 1.135991 1.031921 1.025013
P_10 0.980229 1.068120 1.017662 1.003471 1.022843 1.064059
P_10 1.074008 1.034393 1.226982 1.012716 1.097606 1.141591
P_10 1.039589 1.106223 1.018557 0.978382 0.834101 0.740697
P_10 0.645449 0.583325 0.499769 0.434344 0.387402 0.341043
P_10 0.401923 0.359861 0.412567 0.494375 0.621940 0.773941
P_10 0.829984 0.891793 1.104546 1.146577 1.191228 1.328729
P_10 1.281412 1.500496 1.427614 1.453988 1.476301 1.443589
P_10 1.431750 1.211663 1.198740 1.177090 1.116684 0.876471
P_10 1.001440 0.906175 0.930323 1.002037 1.028203 1.076062
P_10 1.121820 1.110059 1.138697 1.232232 1.243615 1.326683
P_10 1.133985 1.183018 1.123378 0.967110 0.968231 0.806610
P_10 0.751876 0.602076 0.511420 0.427598 0.398588 0.393913
P_10 0.384893 0.412323 0.447791 0.548528 0.616225 0.687635
P_10 0.773901 0.974637 1.060441 1.244624 1.151775 1.337963
P_10 1.436546 1.442926 1.344835 1.473607 1.289427 1.336932
P_10 1.357172 1.159648 1.172221 1.032218 1.053713 1.106085
P_10 1.019132 1.046830 0.952396 1.034176 1.053536 1.055239
P_10 1.203687 1.207540 1.228669 1.128005 1.333106 1.217633
P_10 1.306731 1.148937 1.215862 0.995105 0.941712 0.798351
P_10 0.675500 0.576530 0.482480 0.433421 0.407717 0.367716
P_10 0.402663 0.403859 0.493352 0.614280 0.676549 0.809612
P_10 0.945757 1.008852 1.084222 1.176251 1.229629 1.319829
P_10 1.242675 1.469515 1.460305 1.504877 1.360623 1.370075
P_10 1.242740 1.337384 1.181325 1.171173 1.106269 1.141716
P_10 1.090929 1.043834 1.189152 1.118873 1.153699 1.273182
P_10 1.153975 1.214881 1.237588 1.266851 1.201352 1.277765
P_10 1.321836 1.176765 1.087616 0.933902 1.023140 0.829268
P_10 0.759200 0.592977 0.493970 0.479385 0.410436 0.364775
P_10 0.410292 0.422991 0.534898 0.517079 0.619776 0.721678
P_10 0.876857 0.925911 1.056273 1.208240 1.279843 1.331596
P_10 1.393289 1.385575 1.388057 1.370616 1.372254 1.299322
P_10 1.155872 1.194508 1.126802 1.121911 1.069238 1.011347
P_10 1.111424 1.078433 1.033454 1.054954 1.108320 1.185595
P_10 1.113996 1.244405 1.289717 1.322309 1.137022 1.318858
P_10 1.270872 1.110444 1.129713 0.977336 0.872815 0.838775
P_10 0.804630 0.648610 0.513879 0.475246 0.457843 0.436133
P_10 0.456775 0.483485 0.569787 0.632818 0.778158 0.900749
P_10 0.936137 1.197764 1.232925 1.458515 1.427139 1.592549
P_10 1.476459 1.790086 1.564172 1.578321 1.461578 1.394742
P_10 1.442265 1.344321 1.230065 1.257033 1.286107 1.124897
P_10 1.167702 0.994182 1.095889 1.109273 1.205721 1.135939
P_10 1.231989 1.310276 1.159313 1.249792 1.319825 1.136751
P_10 1.178130 1.072368 1.029098 1.016628 0.944453 0.836643
P_10 0.842638 0.710344 0.608509 0.582869 0.546386 0.502960
P_10 0.450948 0.441330 0.473465 0.462725 0.526803 0.685241
P_10 0.684401 0.810510 0.960308 0.977371 1.122230 1.144499
P_10 1.271728 1.209345 1.282903 1.236759 1.228492 1.286587
P_10 1.317957 1.239151 1.144387 1.256619 1.213524 1.115374
P_10 1.081407 1.120224 1.171899 1.205988 1.089214 1.216849
P_10 1.163144 1.288684 1.276550 1.108900 1.179257 1.159396
P_10 1.120832 0.998777 0.995188 0.887988 0.811867 0.746436
P_10 0.686180 0.633808 0.572447 0.519392 0.492291 0.450685
P_10 0.426749 0.430395 0.432386 0.474984 0.454143 0.511743
P_10 0.529893 0.662129 0.789275 0.832150 0.825573 1.019242
P_10 1.050813 1.174151 1.202396 1.180953 1.274351 1.215474
P_10 1.192944 1.103143 1.164840 1.092368 1.059015 1.066249
P_10 1.067530 0.983591 0.977543 1.012210 1.078961 1.111297
P_10 1.179377 1.176769 1.185954 1.241696 1.218717 1.208895
P_10 1.126365 1.053641 0.998101 0.933800 0.843576 0.742534
P_10 0.610469 0.589143 0.500419 0.418232 0.366429 0.382775
P_10 0.357997 0.411155 0.443388 0.546313 0.570408 0.774151
P_10 0.855060 1.075117 1.004659 1.304869 1.331786 1.405158
P_10 1.328475 1.566641 1.611822 1.489927 1.477483 1.295599
P_10 1.359618 1.242921 1.169405 1.122649 1.067644 1.072104
P_10 0.984923 0.959444 0.880672 0.999319 0.983480 1.064219
P_10 1.138648 1.142765 1.286394 1.481830 1.178724 1.241874
P_10 1.091054 1.161918 1.182241 1.033897 0.946806 0.803435
P_10 0.719961 0.641974 0.547332 0.421533 0.392053 0.406925
P_10 0.392247 0.418411 0.479699 0.547041 0.546578 0.770726
P_10 0.788536 0.913963 1.057846 1.140371 1.248186 1.274372
P_10 1.532971 1.418519 1.399675 1.414800 1.410197 1.248455
P_10 1.248073 1.191102 1.173462 1.166221 1.073761 1.000472
P_10 1.057224 1.080264 1.034577 1.008356 1.123726 1.090091
P_10 1.184414 1.221338 1.272763 1.323390 1.257407 1.242172
P_10 1.258438 1.280538 1.087356 1.117880 0.956505 0.746910
P_10 0.706914 0.638098 0.553753 0.485075 0.430064 0.414504
P_10 0.394943 0.444497 0.496415 0.573425 0.696381 0.792867
P_10 0.857067 1.011869 1.099365 1.254001 1.269161 1.285782
P_10 1.430756 1.527907 1.370690 1.382606 1.453050 1.387837
P_10 1.293039 1.324139 1.164951 1.238905 1.154879 1.092257
P_10 1.136676 1.077607 1.172089 1.021887 1.125970 1.261079
P_10 1.080577 1.154431 1.127108 1.332795 1.260312 1.413123
P_10 1.217113 1.367754 1.159423 1.128606 0.990867 0.827154
P_10 0.695853 0.602049 0.607561 0.447471 0.425368 0.399186
P_10 0.425249 0.430850 0.506907 0.571572 0.654117 0.802974
P_10 0.890361 1.077630 1.167096 1.201205 1.331916 1.402764
P_10 1.313729 1.392773 1.434666 1.405252 1.454092 1.361284
P_10 1.245633 1.201663 1.207957 1.240342 1.125834 1.115140
P_10 1.127683 1.066511 1.100749 1.176902 1.192836 1.231029
P_10 1.167317 1.237928 1.247770 1.221845 1.183189 1.283751
P_10 1.177217 1.303923 1.176763 1.091373 0.904633 0.895718
P_10 0.770065 0.663623 0.575969 0.489086 0.456027 0.429245
P_10 0.444754 0.491908 0.497679 0.625307 0.762931 0.914380
P_10 0.999806 1.297048 1.333481 1.327790 1.419120 1.551615
P_10 1.624794 1.599749 1.709994 1.581145 1.614056 1.476817
P_10 1.400812 1.363961 1.264750 1.297241 1.171967 1.118842
P_10 1.172891 1.104959 1.148888 1.170506 1.226805 1.146823
P_10 1.176015 1.119275 1.254128 1.290317 1.220683 1.160700
P_10 1.156642 1.154312 1.012910 1.072319 0.935752 0.897234
P_10 0.743321 0.690865 0.615699 0.549361 0.478748 0.462497