; Filename: networks/Net1.inp
; WNTR: 0.1.6
; Created: 2019-04-09 13:20:31
[TITLE]
EPANET Example Network 1
A simple example of modeling chlorine decay. Both bulk and
wall reactions are included.

[JUNCTIONS]
;ID                      Elevation       Demand Pattern                 
 10                               710               0                            ;
 11                               710               0                            ;
 12                               700               0                            ;
 13                               695               0                            ;
 21                               700               0                            ;
 22                               695               0                            ;
 23                               690               0                            ;
 31                               700               0                            ;
 32                               710               0                            ;

[RESERVOIRS]
;ID                                   Head                  Pattern
 9                                800                            ;

[TANKS]
;ID                              Elevation           Init Level            Min Level            Max Level             Diameter           Min Volume Volume Curve        
 2                                850             120             100             150            50.5               0                        ;

[PIPES]
;ID                   Node1                Node2                              Length             Diameter            Roughness           Minor Loss               Status
 10                   10                   11                             10530              18             100               0                 Open   ;
 11                   11                   12                              5280              14             100               0                 Open   ;
 12                   12                   13                              5280              10             100               0                 Open   ;
 21                   21                   22                              5280              10             100               0                 Open   ;
 22                   22                   23                              5280              12             100               0                 Open   ;
 31                   31                   32                              5280               6             100               0                 Open   ;
 110                  2                    12                               200              18             100               0                 Open   ;
 111                  11                   21                              5280              10             100               0                 Open   ;
 112                  12                   22                              5280              12             100               0                 Open   ;
 113                  13                   23                              5280               8             100               0                 Open   ;
 121                  21                   31                              5280               8             100               0                 Open   ;
 122                  22                   32                              5280               6             100               0                 Open   ;

[PUMPS]
;ID                   Node1                Node2                Properties          
 9                    9                    10                   HEAD     1                      ;

[VALVES]
;ID                   Node1                Node2                            Diameter Type              Setting           Minor Loss

[TAGS]
;type      name       tag       

[DEMANDS]
;ID        Demand     Pattern   
10         0.0        P_10      
11         150.0      P_11      
12         150.0      P_12      
13         100.0      P_13      
21         150.0      P_21      
22         200.0      P_22      
23         150.0      P_23      
31         100.0      P_31      
32         100.0      P_32      

[STATUS]
;ID        Setting   
[PATTERNS]
;ID        Multipliers

1 1.000000 1.200000 1.400000 1.600000 1.400000 1.200000
1 1.000000 0.800000 0.600000 0.400000 0.600000 0.800000

P_10 0.652701 0.473086 0.448881 0.433870 0.444385 0.383337
P_10 0.374144 0.411080 0.435693 0.491053 0.622173 0.621855
P_10 0.780666 0.789634 0.975891 0.983166 1.053042 1.099691
P_10 1.208296 1.204028 1.373793 1.299562 1.414518 1.191911
P_10 1.142913 1.170741 1.152481 0.997973 0.926798 1.011446
P_10 0.875862 0.857857 0.850412 0.843423 0.900831 0.955110
P_10 1.092994 1.052056 0.937532 1.003084 0.952472 1.018290
P_10 0.993849 0.998921 1.003275 0.785663 0.750587 0.745004
P_10 0.565187 0.582234 0.475975 0.426985 0.407852 0.410057
P_10 0.368670 0.434620 0.488603 0.515726 0.618432 0.614015
P_10 0.838083 0.851019 0.961081 0.964137 1.069058 1.126329
P_10 1.117003 1.141362 1.198904 1.180706 1.206289 1.158939
P_10 1.217807 1.078982 0.935985 1.032947 0.982096 0.976850
P_10 0.899703 0.934218 0.939992 1.013164 0.880100 0.960797
P_10 0.937011 1.065520 1.144086 1.031909 1.061472 1.006411
P_10 1.031213 0.973209 0.898983 0.855206 0.793587 0.657616
P_10 0.586799 0.553598 0.528968 0.443066 0.441855 0.359994
P_10 0.411795 0.432830 0.476650 0.535925 0.646355 0.735550
P_10 0.807760 0.875610 0.974203 1.040080 1.114583 1.045210
P_10 1.173520 1.235384 1.289830 1.337337 1.218792 1.201185
P_10 1.138524 1.053435 1.001634 1.058420 1.047998 1.009021
P_10 0.992367 0.951619 0.961219 0.990855 0.975741 0.976280
P_10 1.019837 1.115525 0.940353 1.111916 1.015049 1.069129
P_10 1.057272 0.884219 0.997781 0.925222 0.772202 0.729153
P_10 0.663161 0.570092 0.473378 0.447567 0.413363 0.364328
P_10 0.404337 0.397945 0.505981 0.527783 0.618854 0.642821
P_10 0.764591 0.870958 1.018921 1.057925 1.187129 1.218451
P_10 1.232330 1.184743 1.143589 1.150775 1.219813 1.129257
P_10 1.020891 1.114898 1.020231 1.121526 0.955252 1.016616
P_10 0.920448 0.961709 0.956959 0.989187 1.010915 1.041824
P_10 0.992719 1.073849 1.141870 1.035209 1.076914 1.038631
P_10 1.041134 1.050315 1.021255 0.911952 0.767273 0.745372
P_10 0.634309 0.599549 0.536024 0.474667 0.431272 0.412452
P_10 0.436482 0.436467 0.482054 0.555753 0.708321 0.725584
P_10 0.936914 0.989969 1.150708 1.137689 1.143706 1.470054
P_10 1.403415 1.392941 1.400206 1.286326 1.353456 1.302288
P_10 1.304850 1.173288 1.197485 1.207615 1.021084 1.064256
P_10 1.029778 0.958200 1.018961 0.919273 1.099072 1.034213
P_10 1.083208 1.097010 1.046057 1.082800 1.015311 0.947970
P_10 0.999844 0.980070 0.839035 0.808825 0.825347 0.769644
P_10 0.690634 0.668204 0.559164 0.533360 0.470808 0.477065
P_10 0.466459 0.429996 0.444056 0.509816 0.552871 0.619032
P_10 0.662245 0.776864 0.796714 0.954825 0.993774 0.891553
P_10 1.137135 1.128152 1.140988 1.146424 1.249055 1.225627
P_10 1.239703 1.101721 1.108529 1.161290 1.154971 1.059529
P_10 0.977553 0.914830 1.008847 1.067295 1.019517 1.038270
P_10 1.031410 0.969167 1.039833 1.020208 1.025799 0.930715
P_10 0.939545 0.854960 0.824586 0.786611 0.714169 0.690380
P_10 0.617031 0.584844 0.554005 0.445143 0.494160 0.424858
P_10 0.401378 0.438246 0.454110 0.449695 0.467453 0.501314
P_10 0.531519 0.539688 0.662975 0.731796 0.769701 0.844430
P_10 0.921579 0.947416 1.079683 1.037652 1.066909 1.156708
P_10 1.044518 1.065062 1.008120 0.921529 0.875558 0.980254
P_10 0.994982 0.944095 0.880844 0.831938 0.882603 0.934483
P_10 0.980149 1.050122 0.996761 0.993239 0.951297 0.962107
P_10 0.983568 0.981492 0.803490 0.830298 0.750859 0.675044
P_10 0.589999 0.556308 0.486759 0.441198 0.386821 0.373874
P_10 0.438411 0.394955 0.481388 0.524777 0.514985 0.651987
P_10 0.729959 0.805561 0.924038 0.920380 1.162765 1.126499
P_10 1.229830 1.279592 1.448480 1.404675 1.352531 1.205419
P_10 1.291965 1.035291 1.088682 1.014875 0.980428 0.841806
P_10 0.944409 0.893394 0.824583 0.889350 0.963434 0.944326
P_10 0.972596 0.985426 0.970675 1.101437 1.184109 1.026724
P_10 1.001417 1.038993 0.899902 0.834243 0.786528 0.718204
P_10 0.674772 0.582899 0.498823 0.451891 0.391968 0.388983
P_10 0.399347 0.426483 0.456906 0.520836 0.544550 0.659527
P_10 0.709741 0.875712 0.929939 1.096643 1.100305 1.177731
P_10 1.098423 1.229465 1.244698 1.170239 1.184116 1.258236
P_10 1.148423 1.135650 1.020568 1.047781 0.899627 0.919619
P_10 0.910304 0.909063 0.913165 0.940954 0.952927 1.004393
P_10 1.129051 0.915722 1.058840 0.992851 1.059334 1.080657
P_10 1.022901 0.917961 1.068353 0.952168 0.760291 0.697887
P_10 0.640370 0.530346 0.521590 0.438986 0.397733 0.395518
P_10 0.395813 0.453383 0.481979 0.541950 0.654149 0.704081
P_10 0.913525 0.890114 0.995598 1.036588 1.056917 1.183580
P_10 1.229392 1.196951 1.183067 1.215940 1.256199 1.047709
P_10 1.205290 1.218181 1.041952 1.050474 0.974374 1.013616
P_10 0.984381 0.985141 1.052634 0.977506 0.975440 0.980555
P_10 1.049513 1.028411 1.122138 1.033341 1.051633 1.087039
P_10 1.071754 1.013538 0.965523 0.919133 0.772465 0.703915
P_10 0.626065 0.631180 0.501035 0.436784 0.428083 0.401813
P_10 0.413613 0.439204 0.466970 0.521487 0.615620 0.686462
P_10 0.811344 0.898610 0.974115 1.089459 1.059567 1.143289
P_10 1.257191 1.226641 1.338671 1.245212 1.266039 1.120208
P_10 1.040590 1.055700 0.984937 1.020148 0.973423 0.907601
P_10 0.985585 0.949560 1.085751 0.975785 1.099705 1.098707
P_10 1.057516 1.155721 1.179001 1.095030 1.041540 1.193750
P_10 0.977584 0.898107 1.029517 0.874809 0.791004 0.781734
P_10 0.717917 0.586473 0.474285 0.458684 0.429675 0.432853
P_10 0.416372 0.468579 0.528543 0.597967 0.705433 0.792848
P_10 0.913956 1.067927 1.197045 1.179226 1.317974 1.360445
P_10 1.489745 1.502332 1.345678 1.421089 1.422585 1.326406
P_10 1.285706 1.131743 1.166477 1.112485 1.091851 1.079616
P_10 1.118210 0.944214 1.049896 1.088503 1.095737 1.041024
P_10 1.110754 1.101399 1.012532 1.052612 1.065428 0.987281
P_10 0.955799 0.988667 0.998970 0.819646 0.822817 0.828458
P_10 0.694065 0.656838 0.597594 0.546939 0.523440 0.438253
P_10 0.433072 0.442258 0.462198 0.468294 0.500164 0.593135
P_10 0.641804 0.711076 0.808886 0.886132 0.854520 1.054660
P_10 1.077765 1.138427 1.070719 1.233592 1.199623 1.166018
P_10 1.070333 1.166195 1.155051 1.052599 1.070829 1.106241
P_10 1.094483 1.049375 1.073718 0.985423 0.991278 1.065560
P_10 1.047125 1.054549 1.009760 0.972967 1.039262 1.031717
P_10 0.917455 0.834797 0.813248 0.770812 0.692936 0.660463
P_10 0.598297 0.547096 0.623326 0.542099 0.461001 0.445121
P_10 0.463157 0.434683 0.403858 0.475095 0.490892 0.552463
P_10 0.509414 0.613070 0.666606 0.701523 0.817324 0.877916
P_10 0.936816 0.965469 1.014634 1.067013 1.097570 1.057325
P_10 1.070956 1.123564 1.081422 0.973590 0.995615 0.964331
P_10 1.000845 0.869576 0.894574 0.937667 0.917703 0.992934
P_10 1.014611 0.955688 1.021493 1.018313 1.063105 1.021437
P_10 1.074848 0.996876 0.955674 0.858113 0.809510 0.754294
P_10 0.594296 0.559893 0.503260 0.427359 0.446522 0.382901
P_10 0.429466 0.390449 0.450523 0.590391 0.593694 0.672066
P_10 0.767356 0.875783 0.921424 1.151860 1.172774 1.156766
P_10 1.327072 1.302514 1.358291 1.395717 1.340711 1.434048
P_10 1.266641 1.076606 1.171567 1.070237 1.024056 0.923531
P_10 0.885567 0.918728 0.909225 0.980622 0.943994 0.937059
P_10 1.042310 1.043976 1.067969 1.030128 1.136757 1.040654
P_10 1.064807 1.045941 0.934931 0.912806 0.850441 0.682125
P_10 0.655583 0.552625 0.525172 0.458856 0.421894 0.453362
P_10 0.389580 0.401127 0.495155 0.528737 0.652954 0.636835
P_10 0.827584 0.951266 1.001279 0.943296 1.175246 1.210357
P_10 1.164930 1.172661 1.260041 1.188911 1.239629 1.201539
P_10 1.254980 1.147373 0.993218 1.019100 0.996794 1.066653
P_10 1.033581 0.909915 0.976050 0.883684 0.989396 1.119708
P_10 1.011271 1.117403 1.086332 1.139574 1.096567 1.213870
P_10 1.031896 1.049906 0.976967 0.957238 0.834525 0.688004
P_10 0.702676 0.535758 0.493373 0.403030 0.443043 0.399323
P_10 0.455069 0.482077 0.511615 0.562951 0.591571 0.735111
P_10 0.801218 0.931239 0.986124 1.036794 1.120169 1.191684
P_10 1.176229 1.343436 1.379417 1.296054 1.343699 1.187387
P_10 1.182877 1.156546 1.116338 1.185918 0.983816 0.934461
P_10 0.974735 0.958441 1.110959 0.964604 1.043406 1.126078
P_10 0.985935 1.078155 1.049175 1.038915 1.143275 1.175734
P_10 0.974243 1.056122 0.909406 0.899175 0.805451 0.716578
P_10 0.643555 0.637540 0.513269 0.407372 0.419408 0.428908
P_10 0.402465 0.430476 0.424209 0.557958 0.612548 0.719929
P_10 0.825654 0.938728 1.011462 1.009721 1.135873 1.214150
P_10 1.229509 1.297694 1.302237 1.274405 1.170858 1.230785
P_10 1.167522 1.170256 1.029529 1.100417 0.970950 0.978651
P_10 0.974690 1.032032 1.011281 1.059113 0.927528 0.993057
P_10 1.038240 1.048677 1.051133 1.201534 1.094323 1.081051
P_10 1.127160 1.077055 0.953657 0.859185 0.807309 0.782542
P_10 0.725313 0.668017 0.568611 0.502837 0.454688 0.452898
P_10 0.442860 0.458788 0.520689 0.644246 0.721133 0.768272
P_10 0.973379 1.052950 1.166027 1.320659 1.302406 1.300234
P_10 1.364715 1.393152 1.558100 1.435094 1.284417 1.342283
P_10 1.242579 1.199541 1.227278 1.196957 1.083242 1.178030
P_10 1.070729 1.065996 1.102242 1.049016 1.118876 1.016210
P_10 1.111479 1.103035 1.102678 1.102777 1.129818 1.043826
P_10 1.042956 0.902887 0.945362 0.883498 0.791215 0.796516
P_10 0.693759 0.681970 0.638097 0.553269 0.479733 0.485024
P_10 0.471436 0.429087 0.507113 0.564548 0.510993 0.618861
P_10 0.708686 0.819245 0.877632 0.939836 0.987997 1.019379
P_10 1.081538 1.158561 1.181763 1.187562 1.139865 1.214919
P_10 1.081371 1.082465 1.045086 1.056871 1.131726 0.966302
P_10 1.142608 0.991160 1.181255 1.042892 1.116534 1.042070
P_10 1.039645 1.116410 1.104407 1.008831 0.921570 0.846582
P_10 0.840604 0.914729 0.895841 0.785916 0.775035 0.736714
P_10 0.645523 0.581844 0.537339 0.502588 0.461946 0.512494
P_10 0.382243 0.429779 0.459397 0.438450 0.435428 0.470333
P_10 0.610440 0.594655 0.646607 0.790175 0.793737 0.882174
P_10 0.915582 0.969728 1.147609 1.073591 1.246556 1.076385
P_10 1.095282 1.108861 1.129826 1.044211 1.004086 0.998857
P_10 0.930799 0.966974 0.926295 0.900899 0.976918 0.995106
P_10 1.013480 1.071230 0.961982 1.019185 1.021542 1.018261
P_10 1.024736 0.887381 0.884470 0.873150 0.789378 0.734960
P_10 0.579618 0.563303 0.473071 0.477045 0.403335 0.407613
P_10 0.415658 0.412770 0.470355 0.511478 0.581208 0.723746
P_10 0.804735 0.799270 0.974468 1.151679 1.134658 1.259994
P_10 1.307750 1.249978 1.432310 1.496460 1.351385 1.297622
P_10 1.202512 1.150437 1.132973 1.089753 1.150151 1.089148
P_10 0.885434 0.954153 0.952797 0.900877 0.991214 0.959869
P_10 1.093378 1.093414 1.047039 1.102770 1.055006 1.014351
P_10 1.060676 0.982801 0.915335 0.862577 0.804825 0.816439
P_10 0.573196 0.558078 0.492696 0.469711 0.444212 0.431505
P_10 0.425003 0.465075 0.482812 0.562171 0.657777 0.661109
P_10 0.857835 0.902189 1.089892 1.068390 1.133964 1.248333
P_10 1.211052 1.269398 1.268977 1.297783 1.255454 1.165338
P_10 1.119992 1.168492 1.137468 1.139911 0.965922 0.956831
P_10 1.029887 0.939649 1.026589 0.919062 1.036240 0.912956
P_10 1.035118 1.080161 1.143895 1.140685 1.186898 1.201746
P_10 1.132640 1.015780 1.018932 0.947645 0.731004 0.748683
P_10 0.649606 0.558452 0.486252 0.457480 0.438961 0.433476
P_10 0.454645 0.478428 0.504659 0.469350 0.695191 0.753692
P_10 0.767941 0.985149 1.012382 1.049372 1.177981 1.207059
P_10 1.112953 1.234026 1.403406 1.338640 1.344988 1.243880
P_10 1.227374 1.181282 1.147970 1.163551 1.114315 1.059146
P_10 1.053227 0.973395 0.990355 1.062054 0.962875 0.993582
P_10 1.093995 1.094142 1.095312 1.142529 1.082133 1.184715
P_10 1.137400 1.073287 0.964734 0.957191 0.842613 0.781401
P_10 0.697268 0.643472 0.527729 0.469602 0.418043 0.425155
P_10 0.423278 0.444016 0.455979 0.564795 0.659681 0.710266
P_10 0.828268 0.961089 0.936627 1.189991 1.141922 1.257562
P_10 1.246008 1.302951 1.214577 1.225618 1.228723 1.263322
P_10 1.183516 1.073727 1.151101 1.082674 1.044275 1.010442
P_10 1.019055 0.971796 1.013865 1.079273 1.007898 1.146989
P_10 1.058743 1.206376 1.081348 1.139928 1.137430 1.103592
P_10 1.055322 1.063042 0.991570 1.044043 0.841761 0.747947
P_10 0.687431 0.666894 0.607997 0.524937 0.419874 0.435672
P_10 0.457193 0.472482 0.524972 0.648032 0.770270 0.861243
P_10 0.987191 0.939704 1.279102 1.378767 1.384506 1.355887
P_10 1.472475 1.493711 1.481692 1.434273 1.457281 1.330791
P_10 1.481604 1.313525 1.322452 1.251422 1.143582 1.135995
P_10 1.064084 1.169100 1.062463 1.144236 1.028457 1.216357
P_10 1.086453 1.154434 0.984228 1.099552 1.091817 1.040481
P_10 1.029983 1.018997 0.928919 0.959259 0.819661 0.737808
P_10 0.691370 0.661426 0.611519 0.613225 0.544138 0.485506
P_10 0.479134 0.474177 0.467908 0.511723 0.536459 0.584621
P_10 0.648143 0.761411 0.844362 0.894208 0.971252 1.130840
P_10 1.165940 1.202832 1.082015 1.139544 1.262842 1.170385
P_10 1.258416 1.201555 1.059457 1.098340 1.086958 1.181977
P_10 1.050193 1.113656 1.081795 1.176865 1.142159 1.109327
P_10 1.101042 1.022990 1.042483 0.971786 1.107603 0.975073
P_10 0.871166 0.977834 0.858367 0.727760 0.743106 0.663834
P_10 0.622131 0.621076 0.585549 0.525612 0.499035 0.476001
P_10 0.466069 0.444909 0.471320 0.500990 0.452653 0.506021
P_10 0.577543 0.597978 0.700849 0.780723 0.818680 0.879956
P_10 1.022803 0.958507 1.047519 1.162068 1.103117 1.202297
P_10 1.059524 1.057160 1.095153 1.089262 1.057519 0.949833
P_10 0.953521 0.927629 0.895713 0.950671 0.959653 1.037032
P_10 0.949945 1.014007 1.110754 1.084917 1.084906 0.967916
P_10 1.042402 1.003422 0.922018 0.920118 0.821149 0.730855
P_10 0.675916 0.568592 0.493464 0.418660 0.438407 0.446054
P_10 0.387470 0.410621 0.474980 0.537499 0.612252 0.696226
P_10 0.740765 0.924585 0.964037 1.176161 1.290146 1.383692
P_10 1.243974 1.333362 1.287218 1.378110 1.221093 1.102478
P_10 1.220489 1.224499 1.172107 1.160383 0.994921 0.957089
P_10 0.955308 1.012820 0.928719 1.046353 0.979191 0.950982
P_10 0.997578 1.074569 1.184977 1.094485 1.083521 1.143734
P_10 1.159083 1.041003 0.941533 0.991317 0.843063 0.728496
P_10 0.654092 0.586410 0.511621 0.472001 0.446196 0.454835
P_10 0.454805 0.437551 0.479600 0.597082 0.633020 0.729395
P_10 0.782970 0.825713 1.023654 1.090974 1.140681 1.284970
P_10 1.372795 1.311680 1.236208 1.397995 1.304156 1.240494
P_10 1.130342 1.173608 1.163659 1.071134 1.023850 0.979559
P_10 0.983949 0.932637 1.004325 0.981691 1.015727 1.077591
P_10 1.107627 1.206785 1.111027 1.142408 1.219529 1.115876
P_10 1.122021 1.058081 1.048296 0.937477 0.777116 0.790184
P_10 0.648267 0.574619 0.482220 0.451075 0.496265 0.462291
P_10 0.438369 0.483344 0.448851 0.591574 0.635120 0.768595
P_10 0.888280 1.058823 1.128461 1.141021 1.245341 1.279063
P_10 1.165431 1.269469 1.312913 1.386200 1.247636 1.335511
P_10 1.319011 1.171268 1.233406 1.174373 1.070938 1.063951
P_10 1.121443 1.019144 1.062781 1.143253 1.140693 1.112059
P_10 1.102035 1.195095 1.085371 1.194212 1.076397 1.137762
P_10 1.076737 1.148958 1.011868 1.003231 0.880511 0.862740
P_10 0.631013 0.590336 0.532568 0.460132 0.435748 0.423420
P_10 0.422847 0.446327 0.517654 0.585545 0.672100 0.714195
P_10 0.840630 0.954673 1.070763 1.102989 1.256959 1.225754
P_10 1.181186 1.358275 1.346118 1.339949 1.322240 1.233740
P_10 1.224371 1.092392 1.118708 1.007818 1.053453 1.012295
P_10 1.037597 1.041469 1.154125 1.147366 1.143969 1.148519
P_10 1.110054 1.171506 1.105900 1.126447 1.129274 1.209114
P_10 1.167193 1.144396 0.951683 0.906919 0.929513 0.867944
P_10 0.712129 0.656684 0.562790 0.491086 0.468411 0.449843
P_10 0.464210 0.498523 0.568534 0.621015 0.693121 0.807029
P_10 0.885636 1.116083 1.133469 1.420383 1.301732 1.501331
P_10 1.378421 1.462756 1.558253 1.390386 1.396772 1.478535
P_10 1.385636 1.352560 1.249311 1.168025 1.212128 1.114248
P_10 1.141511 1.174813 1.017785 1.106373 1.176905 1.097315
P_10 1.244540 1.097156 1.107505 1.156460 1.119700 1.147550
P_10 1.147225 0.971233 0.974315 0.916798 0.863500 0.827115
P_10 0.698691 0.683278 0.641800 0.501514 0.561191 0.516610
P_10 0.502581 0.493960 0.496682 0.525944 0.567621 0.597958
P_10 0.699666 0.797234 0.904105 0.946040 0.993991 1.124299
P_10 1.194526 1.237098 1.256231 1.230452 1.255150 1.227921
P_10 1.079703 1.074424 1.206262 1.164123 1.177015 1.183658
P_10 1.060897 1.033472 1.084307 1.052101 1.189185 1.178207
P_10 1.066053 1.094104 1.088589 1.049924 1.023420 0.965753
P_10 0.844610 0.846862 0.785063 0.812815 0.693367 0.666859
P_10 0.656203 0.597339 0.622398 0.526576 0.568297 0.452493
P_10 0.450756 0.470769 0.471603 0.502920 0.481799 0.571147
P_10 0.561644 0.640125 0.743979 0.737829 0.877345 0.948748
P_10 1.078869 1.185967 1.046217 1.103851 1.236689 1.213540
P_10 1.127768 1.215420 1.165088 1.056782 1.101578 0.967656
P_10 0.954402 1.029030 0.963975 1.019188 1.008810 1.013130
P_10 0.945075 1.032446 1.088899 1.125120 1.037973 1.099499
P_10 0.943159 0.944825 1.027681 0.834124 0.792574 0.722254
P_10 0.634612 0.524667 0.543237 0.458194 0.423717 0.395601
P_10 0.443249 0.432733 0.485506 0.516821 0.626361 0.761442
P_10 0.876916 0.991640 1.000217 1.143209 1.208442 1.323027
P_10 1.328811 1.328349 1.381847 1.377012 1.391547 1.287820
P_10 1.306328 1.339264 1.205651 1.143773 1.046392 1.114752
P_10 0.986579 0.960353 0.921366 0.968300 1.101463 1.038400
P_10 1.026747 1.178961 1.144609 1.120337 1.253081 1.091107
P_10 1.038841 1.083426 1.039963 1.003538 0.800632 0.863793
P_10 0.745092 0.602006 0.561421 0.482203 0.432961 0.448524
P_10 0.360538 0.466428 0.502643 0.566646 0.636021 0.769129
P_10 0.837836 0.882201 0.966867 1.106883 1.273568 1.235219
P_10 1.229227 1.395390 1.338430 1.145224 1.303450 1.247203
P_10 1.274878 1.089257 1.184509 1.054267 0.972979 0.992456
P_10 1.009920 1.013797 1.062466 1.050487 1.035718 1.118324
P_10 1.147299 1.276134 1.309467 1.276233 1.193669 1.044461
P_10 1.228278 1.103045 1.087364 0.903919 0.938445 0.878455
P_10 0.723381 0.572540 0.590985 0.485969 0.453337 0.406571
P_10 0.444466 0.449288 0.562589 0.622672 0.712265 0.805321
P_10 0.868365 0.961175 0.962597 1.187637 1.176895 1.419198
P_10 1.289626 1.243492 1.252930 1.261748 1.237055 1.256164
P_10 1.335300 1.301826 1.226248 1.156791 1.171217 1.076078
P_10 1.186904 1.128220 1.067149 1.062549 1.075220 1.037679
P_10 1.015054 1.225817 1.156369 1.176905 1.182909 1.206133
P_10 1.110608 1.072163 0.998298 0.985092 0.878080 0.796458
P_10 0.808635 0.535145 0.558054 0.504553 0.446870 0.421458
P_10 0.442664 0.417050 0.502409 0.591122 0.696671 0.761022
P_10 0.873420 0.996790 1.039631 1.133448 1.171336 1.308364
P_10 1.297708 1.268040 1.212304 1.494793 1.301204 1.306698
P_10 1.262386 1.153437 1.048807 1.152284 1.095748 1.093019
P_10 1.135161 1.028650 1.028647 1.046954 1.054340 1.150339
P_10 1.139842 1.228391 1.261168 1.193434 1.259496 1.180955
P_10 1.245603 1.121992 1.037010 0.995345 0.927596 0.866701
P_10 0.779611 0.692151 0.599210 0.524775 0.481737 0.485899
P_10 0.446833 0.545169 0.587397 0.627295 0.737971 0.878639
P_10 0.952906 1.159927 1.172992 1.328453 1.464240 1.384813
P_10 1.624465 1.546400 1.636504 1.482151 1.514690 1.435910
P_10 1.366442 1.329963 1.340353 1.229306 1.136814 1.145624
P_10 1.233997 1.160080 1.146091 0.994755 1.061988 1.154884
P_10 1.175576 1.192218 1.046258 1.186076 1.116503 1.098200
P_10 1.135376 0.949914 0.999201 0.989799 0.866236 0.824866
P_10 0.757953 0.715108 0.627515 0.592730 0.546917 0.529039
P_10 0.476502 0.495926 0.532463 0.567369 0.581913 0.604239
P_10 0.662933 0.720937 0.880792 0.945306 1.033715 1.133458
P_10 1.316358 1.392228 1.350563 1.313893 1.282101 1.197751
P_10 1.313348 1.174405 1.173714 1.244254 1.268000 1.099736
P_10 1.089545 1.214105 1.208034 1.100306 1.034437 1.185229
P_10 1.137625 1.047514 1.110043 1.122461 1.031165 0.927951
P_10 0.968557 0.966440 0.918650 0.813412 0.783477 0.725659
P_10 0.722480 0.606620 0.595843 0.584367 0.533086 0.519032
P_10 0.535610 0.454990 0.454752 0.478698 0.567701 0.556954
P_10 0.633889 0.676021 0.706422 0.783085 0.847868 0.918083
P_10 1.032613 1.138792 1.158921 1.190656 1.160249 1.183459
P_10 1.191071 1.168131 1.201136 1.151090 1.084971 1.089698
P_10 1.041506 0.984083 1.033866 0.895747 0.963171 1.079916
P_10 1.122913 0.969183 1.091092 1.106604 1.133648 1.136286
P_10 1.028081 1.010388 0.993302 0.932576 0.744218 0.773856
P_10 0.691431 0.569559 0.519527 0.493225 0.432438 0.413841
P_10 0.447719 0.438886 0.496187 0.563290 0.624927 0.759622
P_10 0.818084 0.995182 1.078027 1.193610 1.333543 1.386125
P_10 1.488615 1.322216 1.509127 1.410620 1.427825 1.353004
P_10 1.411726 1.234703 1.244410 1.165734 1.013700 1.088370
P_10 1.070609 0.953658 0.975403 1.063109 0.936893 1.095238
P_10 1.075381 1.106242 1.129157 1.311770 1.360366 1.078286
P_10 1.223476 1.070647 1.053723 0.957615 0.964924 0.836738
P_10 0.747507 0.619528 0.550071 0.523755 0.461912 0.453510
P_10 0.431911 0.496568 0.534478 0.564343 0.680651 0.714182
P_10 0.892225 0.930712 1.121376 1.184838 1.202589 1.293483
P_10 1.403676 1.237142 1.209379 1.387799 1.234173 1.260391
P_10 1.306426 1.209581 1.167089 1.240834 1.066003 1.000335
P_10 1.085399 0.921946 1.059130 1.003349 1.131365 1.093664
P_10 1.201339 1.170542 1.207287 1.200792 1.247423 1.203532
P_10 1.166303 1.062544 1.038157 0.883676 0.841836 0.838412
P_10 0.778009 0.620551 0.572883 0.479106 0.445671 0.445451
P_10 0.428773 0.503698 0.557730 0.611912 0.686548 0.767288
P_10 0.888953 1.015402 1.053967 1.121318 1.333216 1.307299
P_10 1.302775 1.354651 1.282643 1.323198 1.425367 1.419184
P_10 1.312214 1.204590 1.187623 1.218120 1.160484 1.107035
P_10 1.165006 0.988874 1.042476 1.150177 1.190768 1.128276
P_10 1.135400 1.112556 1.104425 1.175941 1.118965 1.305466
P_10 1.238493 1.189969 1.173094 0.964195 0.987866 0.851610
P_10 0.705899 0.656023 0.558458 0.512841 0.491986 0.455369
P_10 0.460411 0.479396 0.534004 0.591088 0.686140 0.774552
P_10 0.890404 1.035513 1.021471 1.193279 1.174476 1.425658
P_10 1.375034 1.331293 1.314811 1.335534 1.319617 1.288068
P_10 1.188534 1.208040 1.128278 1.158015 1.124764 1.031937
P_10 1.040604 1.058310 1.003888 1.113047 1.064887 1.077651
P_10 1.124649 1.148208 1.208543 1.282180 1.126452 1.238453
P_10 1.285560 1.158904 1.137416 1.058116 0.905998 0.785855
P_10 0.807072 0.743975 0.577864 0.558776 0.511059 0.500264
P_10 0.454820 0.493908 0.607003 0.691476 0.773078 0.860449
P_10 0.975096 1.148212 1.210090 1.363335 1.332544 1.389241
P_10 1.602111 1.706314 1.602438 1.537195 1.487628 1.663391
P_10 1.262064 1.393944 1.300505 1.221615 1.156150 1.234890
P_10 1.137149 1.099922 1.170258 1.142609 1.142372 1.189962
P_10 1.207427 1.257666 1.269188 1.274541 1.218427 1.141744
P_10 1.051975 1.125377 1.014248 1.016788 0.931216 0.880357
P_10 0.799936 0.791909 0.657031 0.613605 0.592861 0.548854
P_10 0.502876 0.469600 0.476307 0.553504 0.557648 0.705524
P_10 0.703490 0.811042 0.894640 1.013338 1.118234 1.076293
P_10 1.199986 1.199754 1.364101 1.314481 1.308090 1.308976
P_10 1.272322 1.361737 1.314618 1.163323 1.165139 1.087673
P_10 1.135220 1.222618 1.220630 1.195297 1.120646 1.261116
P_10 1.218430 1.109022 1.210438 1.181562 1.091035 0.985143
P_10 0.990815 0.920280 0.820431 0.849910 0.815346 0.721193
P_10 0.682968 0.656619 0.614681 0.572275 0.595757 0.468299
P_10 0.432524 0.467586 0.473956 0.479000 0.525549 0.504792
P_10 0.586606 0.673870 0.751929 0.814621 0.817852 1.015553
P_10 1.017713 1.083357 1.174569 1.185668 1.231752 1.200968
P_10 1.194635 1.158051 1.121398 1.253501 1.149551 1.122710
P_10 1.190632 1.001210 1.042335 0.968757 1.054027 1.080926
P_10 1.085608 1.107191 1.068969 1.082258 1.118320 1.150352
P_10 1.144776 1.099172 0.921194 0.861423 0.849091 0.753109
P_10 0.714627 0.605476 0.539386 0.469958 0.459240 0.423712
P_10 0.470234 0.488497 0.485642 0.540552 0.615330 0.675852
P_10 0.842131 0.964439 1.114950 1.191448 1.273965 1.313490
P_10 1.364106 1.491827 1.574983 1.552078 1.373420 1.394870
P_10 1.327508 1.317294 1.215954 1.048942 1.104781 1.106009
P_10 1.114123 1.033763 1.034367 0.955777 1.055632 1.112568
P_10 1.141176 1.135776 1.142937 1.158217 1.267504 1.192088
P_10 1.213659 1.234416 1.047514 1.063762 0.964523 0.849128
P_10 0.776556 0.582015 0.561465 0.521627 0.461828 0.462891
P_10 0.462183 0.525228 0.531745 0.598455 0.643499 0.682334
P_10 0.943314 1.014308 1.002084 1.164197 1.240907 1.315178
P_10 1.500190 1.225228 1.440142 1.487711 1.295990 1.334971
P_10 1.334363 1.226604 1.204314 1.206944 1.122701 0.957455
P_10 1.051235 1.080144 1.119810 1.079013 1.127421 1.153433
P_10 1.211531 1.206688 1.206127 1.171317 1.194836 1.182964
P_10 1.325558 1.153754 1.024322 0.956185 0.943154 0.834221
P_10 0.728416 0.715846 0.608365 0.509483 0.436841 0.464427
P_10 0.490772 0.490860 0.599900 0.622236 0.693584 0.815424
P_10 0.961424 1.002979 1.101833 1.177738 1.236973 1.383383
P_10 1.254547 1.439637 1.264627 1.400053 1.406625 1.322221
P_10 1.240778 1.298710 1.242770 1.188896 1.225189 1.257187
P_10 1.080209 1.072861 1.074799 1.097049 1.111261 1.114806
P_10 1.101129 1.205347 1.242439 1.109997 1.183507 1.189132
P_10 1.203112 1.237165 0.994107 0.899879 0.856012 0.818027
P_10 0.795347 0.647349 0.603043 0.508815 0.480218 0.448369
P_10 0.477051 0.435349 0.563855 0.582630 0.703171 0.814118
P_10 0.941928 1.040091 1.069256 1.086569 1.277537 1.407875
P_10 1.367415 1.380864 1.381057 1.316664 1.388600 1.393418
P_10 1.235968 1.263511 1.187520 1.159970 1.186570 1.102470
P_10 1.171117 1.058539 1.080545 1.165904 1.049172 1.156381
P_10 1.174731 1.149204 1.361489 1.182906 1.127117 1.234616
P_10 1.222646 1.216755 1.030693 1.046921 0.958615 0.875110
P_10 0.790823 0.676868 0.570378 0.556584 0.489423 0.510607
P_10 0.483098 0.529000 0.571461 0.649536 0.836149 0.823835
P_10 1.022583 1.214758 1.180402 1.454266 1.509465 1.494329
P_10 1.640476 1.492774 1.510566 1.582331 1.389939 1.470613
P_10 1.489091 1.305171 1.322907 1.260959 1.249774 1.105868
P_10 1.138981 1.059666 1.090891 1.282603 1.229489 1.187485
P_10 1.228761 1.177032 1.167673 1.197900 1.192655 1.062360
P_10 1.022829 1.138555 1.067600 0.908512 0.913082 0.838546
P_10 0.861322 0.756528 0.695167 0.631979 0.555224 0.529081