; Filename: networks/Net1.inp
; WNTR: 0.1.6
; Created: 2019-04-09 13:11:24
[TITLE]
EPANET Example Network 1
A simple example of modeling chlorine decay. Both bulk and
wall reactions are included.

[JUNCTIONS]
;ID                      Elevation       Demand Pattern                 
 10                               710               0                            ;
 11                               710               0                            ;
 12                               700               0                            ;
 13                               695               0                            ;
 21                               700               0                            ;
 22                               695               0                            ;
 23                               690               0                            ;
 31                               700               0                            ;
 32                               710               0                            ;

[RESERVOIRS]
;ID                                   Head                  Pattern
 9                                800                            ;

[TANKS]
;ID                              Elevation           Init Level            Min Level            Max Level             Diameter           Min Volume Volume Curve        
 2                                850             120             100             150            50.5               0                        ;

[PIPES]
;ID                   Node1                Node2                              Length             Diameter            Roughness           Minor Loss               Status
 10                   10                   11                             10530              18             100               0                 Open   ;
 11                   11                   12                              5280              14             100               0                 Open   ;
 12                   12                   13                              5280              10             100               0                 Open   ;
 21                   21                   22                              5280              10             100               0                 Open   ;
 22                   22                   23                              5280              12             100               0                 Open   ;
 31                   31                   32                              5280               6             100               0                 Open   ;
 110                  2                    12                               200              18             100               0                 Open   ;
 111                  11                   21                              5280              10             100               0                 Open   ;
 112                  12                   22                              5280              12             100               0                 Open   ;
 113                  13                   23                              5280               8             100               0                 Open   ;
 121                  21                   31                              5280               8             100               0                 Open   ;
 122                  22                   32                              5280               6             100               0                 Open   ;

[PUMPS]
;ID                   Node1                Node2                Properties          
 9                    9                    10                   HEAD     1                      ;

[VALVES]
;ID                   Node1                Node2                            Diameter Type              Setting           Minor Loss

[TAGS]
;type      name       tag       

[DEMANDS]
;ID        Demand     Pattern   
10         0.0        P_10      
11         150.0      P_11      
12         150.0      P_12      
13         100.0      P_13      
21         150.0      P_21      
22         200.0      P_22      
23         150.0      P_23      
31         100.0      P_31      
32         100.0      P_32      

[STATUS]
;ID        Setting   
[PATTERNS]
;ID        Multipliers

1 1.000000 1.200000 1.400000 1.600000 1.400000 1.200000
1 1.000000 0.800000 0.600000 0.400000 0.600000 0.800000

P_10 0.565561 0.511248 0.432996 0.359533 0.351085 0.307838
P_10 0.330043 0.358707 0.420394 0.487511 0.536547 0.652369
P_10 0.748774 0.832413 0.880590 1.102979 1.097073 1.247589
P_10 1.203538 1.316902 1.470319 1.360013 1.308570 1.255813
P_10 1.086687 1.297358 1.179434 1.060728 1.005856 0.906644
P_10 1.000351 0.905761 0.855187 0.941337 0.956116 0.907539
P_10 0.951444 1.048635 1.015929 1.054367 1.078622 1.108409
P_10 1.059111 0.964306 0.897111 0.926336 0.705991 0.725704
P_10 0.643368 0.529285 0.449846 0.396244 0.377806 0.330082
P_10 0.370848 0.398175 0.405034 0.498523 0.553465 0.747264
P_10 0.729665 0.724330 0.921090 1.107447 1.088533 1.065655
P_10 1.113990 1.236629 1.315772 1.305482 1.256554 1.242999
P_10 1.258727 1.197718 1.114163 1.030130 1.002823 0.992510
P_10 0.955369 0.866181 0.873118 1.063973 0.920958 0.997822
P_10 1.019664 1.111059 1.104995 1.055509 1.148951 1.049829
P_10 1.027617 0.979248 0.864955 0.871816 0.751465 0.768266
P_10 0.584151 0.462552 0.447082 0.356253 0.347917 0.358539
P_10 0.351210 0.388641 0.433614 0.528720 0.593640 0.705340
P_10 0.811429 0.870555 1.071272 0.993457 1.151395 1.230375
P_10 1.188569 1.238286 1.373664 1.337220 1.249207 1.152155
P_10 1.399565 1.136054 1.177228 1.196944 1.113323 1.157443
P_10 1.142497 1.042874 0.968288 0.948908 0.991340 1.068866
P_10 1.004250 1.129699 1.072725 1.088268 1.158533 1.103495
P_10 1.046550 1.088630 0.903588 0.869176 0.787799 0.712343
P_10 0.623982 0.525093 0.426771 0.384712 0.375561 0.366265
P_10 0.351974 0.387188 0.420159 0.516881 0.603692 0.694692
P_10 0.803990 0.929550 0.888306 1.065563 1.246217 1.167345
P_10 1.273982 1.282387 1.261999 1.222785 1.154156 1.250063
P_10 1.229481 1.131455 1.181211 1.122552 1.003783 0.978431
P_10 1.049528 1.017329 0.979083 1.086027 1.119607 1.022452
P_10 1.039357 1.028614 0.986543 1.120680 1.143831 1.155435
P_10 0.918747 0.961264 0.951233 0.834499 0.787456 0.712562
P_10 0.632913 0.550059 0.464152 0.408324 0.380838 0.349412
P_10 0.377691 0.403779 0.478475 0.556581 0.633026 0.776561
P_10 0.896719 0.984673 1.198292 1.334765 1.330878 1.459021
P_10 1.532053 1.510769 1.535684 1.320024 1.396064 1.434950
P_10 1.265668 1.292173 1.264580 1.133763 1.040332 1.010678
P_10 1.117389 1.033400 1.154654 1.064126 1.129201 0.990222
P_10 1.159560 1.129898 1.079029 1.038206 1.108168 1.065367
P_10 0.908293 0.952345 0.890029 0.807887 0.838947 0.787937
P_10 0.631709 0.566035 0.582854 0.537255 0.426593 0.406256
P_10 0.429861 0.445827 0.393178 0.435756 0.492500 0.545265
P_10 0.671355 0.772277 0.797365 0.936836 0.899284 1.094225
P_10 1.094630 1.231804 1.086929 1.171326 1.244767 1.172093
P_10 1.164398 1.067605 1.127574 1.127939 1.139489 1.068986
P_10 1.124142 1.146364 1.015211 1.044475 1.054789 1.022575
P_10 1.069090 1.071226 1.078788 0.939491 0.976304 0.941763
P_10 0.876806 0.894760 0.802408 0.732379 0.695949 0.672628
P_10 0.614769 0.519244 0.448526 0.459140 0.469854 0.452423
P_10 0.436818 0.390059 0.364299 0.394328 0.479991 0.507290
P_10 0.520487 0.632727 0.706894 0.689241 0.793584 0.830826
P_10 0.872834 1.073381 1.064828 1.004311 1.169416 1.189214
P_10 1.074689 1.148434 1.116168 1.074337 1.059227 0.913329
P_10 0.978509 0.966498 0.856901 0.903494 1.004024 0.984898
P_10 0.957259 1.051050 1.052551 0.987281 0.984174 0.998652
P_10 0.927198 0.954144 0.869605 0.761095 0.749708 0.654451
P_10 0.555551 0.476333 0.425662 0.383268 0.339460 0.330221
P_10 0.326375 0.388798 0.427383 0.458269 0.616514 0.677446
P_10 0.734967 0.879019 0.859440 0.974758 1.222886 1.262394
P_10 1.276996 1.361966 1.320295 1.387737 1.327094 1.424983
P_10 1.137376 1.257023 1.095681 1.121729 0.983553 0.996650
P_10 1.011967 0.944544 0.917801 0.931342 1.042194 0.950348
P_10 1.008593 0.892466 1.038262 1.070268 1.153012 1.166082
P_10 1.132619 1.014779 0.947316 0.838865 0.766984 0.670411
P_10 0.655124 0.537169 0.533439 0.420407 0.396801 0.357367
P_10 0.357302 0.393060 0.428101 0.505725 0.585350 0.624946
P_10 0.741813 0.808502 0.983796 1.092428 1.132224 1.239180
P_10 1.305067 1.306030 1.267842 1.349020 1.297432 1.259273
P_10 1.180976 1.099092 1.014855 1.008664 0.952028 1.008358
P_10 0.945584 1.003732 1.044724 0.958549 0.935572 1.040902
P_10 1.011590 1.055013 1.081392 1.025737 1.158778 1.038610
P_10 1.059116 1.020214 0.914304 0.911907 0.781901 0.706281
P_10 0.631110 0.544306 0.459651 0.410321 0.361862 0.385760
P_10 0.377302 0.407906 0.476102 0.489843 0.591234 0.685975
P_10 0.797433 0.934142 0.976179 1.080924 1.078024 1.151287
P_10 1.356066 1.182604 1.179769 1.283356 1.338838 1.165824
P_10 1.180134 1.146906 1.254199 1.102943 1.093600 1.126638
P_10 1.082976 1.017930 0.956443 1.043456 1.012302 1.016459
P_10 1.011037 1.014499 1.094654 1.070260 1.060086 1.109549
P_10 1.125313 1.005259 1.012051 0.808953 0.757512 0.622591
P_10 0.701362 0.540854 0.500556 0.418536 0.362481 0.342107
P_10 0.344167 0.391219 0.470968 0.492573 0.579131 0.705658
P_10 0.827381 0.866645 1.066920 1.089056 1.204596 1.326189
P_10 1.323829 1.298814 1.260210 1.259691 1.282076 1.235911
P_10 1.200210 1.062648 1.062572 0.979915 0.933844 0.938142
P_10 1.029913 0.896411 0.988326 1.000095 1.008762 1.086131
P_10 1.023814 1.143840 0.958927 1.146637 1.154279 1.072002
P_10 1.095535 0.957568 0.883380 0.886972 0.829511 0.731756
P_10 0.644160 0.570481 0.470637 0.422938 0.370262 0.344159
P_10 0.409811 0.438666 0.479081 0.484757 0.685476 0.785136
P_10 0.935950 0.988122 1.145897 1.195842 1.413229 1.348552
P_10 1.502599 1.430049 1.512335 1.503997 1.362781 1.368028
P_10 1.410516 1.406858 1.128610 1.184283 1.049514 1.173780
P_10 1.063668 1.056879 1.050821 1.112318 1.022995 0.971608
P_10 1.035695 1.118080 1.143953 1.143422 1.091158 0.991478
P_10 1.046546 0.928351 0.896464 0.859146 0.774763 0.741299
P_10 0.691894 0.533386 0.528305 0.482608 0.443406 0.408222
P_10 0.386569 0.397436 0.446992 0.439121 0.480506 0.573182
P_10 0.609213 0.716691 0.832881 0.966977 1.001671 1.037445
P_10 1.215547 1.131194 1.159930 1.252360 1.258041 1.243877
P_10 1.162827 1.225071 1.191316 1.197071 1.167013 1.121370
P_10 1.200705 1.035406 1.012910 1.086211 1.098682 1.082010
P_10 1.044142 1.081399 1.045942 0.928005 0.989291 0.892542
P_10 0.943013 0.765597 0.785128 0.643919 0.701970 0.669724
P_10 0.628636 0.582107 0.540301 0.511408 0.446611 0.415922
P_10 0.376815 0.371869 0.380111 0.430583 0.491346 0.508251
P_10 0.528384 0.572376 0.662470 0.776057 0.771070 0.924954
P_10 1.008742 1.011057 1.086714 1.049879 1.036512 1.148556
P_10 1.147524 1.143660 1.099136 1.191346 1.040399 0.956502
P_10 1.022148 1.053026 0.939934 0.961375 0.941507 0.977088
P_10 0.991016 1.000601 1.097803 1.036470 1.056315 1.007035
P_10 0.937264 0.953870 0.870318 0.734389 0.770516 0.625219
P_10 0.545979 0.517339 0.453000 0.392745 0.328318 0.335025
P_10 0.364590 0.381480 0.417523 0.470725 0.577295 0.656197
P_10 0.729447 0.847353 0.949441 1.146925 1.306347 1.226125
P_10 1.328827 1.440835 1.307959 1.269102 1.357529 1.347010
P_10 1.288199 1.289549 1.212779 1.088300 1.079485 0.941749
P_10 0.993394 0.934307 0.881648 0.925830 1.001965 1.005458
P_10 0.948701 1.066473 1.185801 1.044557 1.110093 1.101082
P_10 0.995793 1.063419 0.967076 0.930331 0.758001 0.694823
P_10 0.572447 0.562860 0.441315 0.391159 0.399042 0.359197
P_10 0.376206 0.382364 0.454209 0.469621 0.576189 0.627781
P_10 0.770891 0.903313 0.984182 1.063412 1.165972 1.150193
P_10 1.156848 1.375408 1.302851 1.375070 1.231963 1.243833
P_10 1.236929 1.148927 1.160830 1.089011 1.063441 1.036509
P_10 0.995976 0.950187 1.001570 0.927845 1.036024 1.000562
P_10 1.102732 1.106341 1.142057 1.161141 1.123720 1.196982
P_10 1.112388 1.061768 0.932889 0.956724 0.752079 0.714069
P_10 0.654156 0.610328 0.459056 0.368576 0.336757 0.346955
P_10 0.375457 0.414108 0.426926 0.524380 0.600989 0.712510
P_10 0.901296 0.937838 1.009700 1.143016 1.193440 1.214523
P_10 1.271559 1.352844 1.313708 1.394877 1.271620 1.256652
P_10 1.049904 1.207707 1.190953 1.236821 1.035780 1.134168
P_10 1.046010 0.996297 1.011261 1.032804 1.029979 1.121659
P_10 1.058893 1.049477 1.027228 1.120726 1.130310 1.088987
P_10 1.052635 1.010142 0.962291 0.847476 0.827117 0.745412
P_10 0.657820 0.552236 0.413574 0.408435 0.402314 0.330264
P_10 0.381124 0.374013 0.447904 0.490991 0.617991 0.713808
P_10 0.846028 0.887964 1.114981 1.069349 1.187372 1.246335
P_10 1.357502 1.315957 1.438034 1.223170 1.251820 1.264385
P_10 1.190683 1.151831 1.054697 1.104880 1.061543 0.911662
P_10 0.980105 1.042990 1.002449 1.070903 0.998801 0.952079
P_10 1.163694 1.091618 1.131897 1.120289 1.116829 1.115884
P_10 1.111690 0.990364 0.964869 0.866780 0.789465 0.785019
P_10 0.674424 0.533371 0.461530 0.454586 0.400524 0.376994
P_10 0.388212 0.423818 0.476423 0.603230 0.710071 0.798114
P_10 0.904880 1.047173 1.132117 1.386457 1.382749 1.377254
P_10 1.584245 1.338909 1.409630 1.468472 1.456651 1.410732
P_10 1.347476 1.289059 1.326312 1.208776 1.209090 1.126445
P_10 1.056152 1.184948 1.139238 1.059652 1.050210 1.072114
P_10 1.150505 1.138925 1.115039 1.095606 1.025576 1.096979
P_10 1.077296 0.916173 0.930535 0.905757 0.782481 0.829894
P_10 0.703688 0.628042 0.599400 0.497872 0.468447 0.428869
P_10 0.423742 0.399262 0.438659 0.450570 0.518293 0.552126
P_10 0.660502 0.709573 0.803173 0.901472 0.930674 1.086144
P_10 1.245961 1.206469 1.346768 1.188437 1.219692 1.341822
P_10 1.152163 1.184567 1.109897 1.215260 1.164980 1.165447
P_10 0.975162 1.159325 1.108957 1.112665 1.105310 1.071995
P_10 1.084355 1.032149 1.009612 1.096244 0.947832 0.985325
P_10 0.970746 0.865302 0.759298 0.725926 0.667642 0.657719
P_10 0.645204 0.522905 0.560958 0.508267 0.476075 0.448727
P_10 0.430706 0.381684 0.412068 0.412826 0.452733 0.459097
P_10 0.552530 0.616387 0.695574 0.741732 0.759379 1.010436
P_10 0.921220 1.034182 1.119512 1.125643 1.177347 1.236904
P_10 1.053977 1.106135 1.091564 1.133599 1.082113 1.121125
P_10 1.013603 1.036645 0.931420 0.898431 0.878824 0.999714
P_10 1.101765 1.064127 0.906605 1.044174 1.112337 1.053095
P_10 1.010675 0.932145 0.930952 0.864706 0.763289 0.702005
P_10 0.557318 0.546863 0.503635 0.413741 0.391117 0.323958
P_10 0.352759 0.370719 0.402829 0.493204 0.587294 0.756424
P_10 0.786822 0.908484 1.016328 1.091990 1.240214 1.380297
P_10 1.450402 1.337082 1.529884 1.437766 1.374352 1.325737
P_10 1.307253 1.254486 1.128617 1.056992 1.024241 0.996983
P_10 0.991243 0.995158 0.937074 1.005699 0.990720 1.013659
P_10 0.993478 1.119753 1.084634 1.099968 1.213003 1.160318
P_10 1.094431 1.076076 0.963778 1.001624 0.834580 0.733591
P_10 0.660731 0.582876 0.500884 0.430530 0.362011 0.398009
P_10 0.370589 0.394282 0.419116 0.480804 0.588438 0.669502
P_10 0.783087 0.947122 1.002203 1.134422 1.197188 1.292780
P_10 1.300814 1.285110 1.337329 1.333172 1.383690 1.203000
P_10 1.164213 1.081025 1.141380 1.080583 1.105010 1.047249
P_10 0.964111 0.969321 1.089055 1.102754 0.998379 1.073651
P_10 1.099267 1.171932 1.144769 1.181080 1.145886 1.068242
P_10 1.024427 1.065279 1.045912 0.920903 0.822016 0.689820
P_10 0.640468 0.520769 0.459919 0.441487 0.394744 0.368025
P_10 0.366641 0.416633 0.466710 0.534385 0.668989 0.754016
P_10 0.797421 0.948604 0.982164 1.098097 1.262917 1.342868
P_10 1.287621 1.371792 1.243042 1.438997 1.368825 1.278547
P_10 1.309755 1.266662 1.133778 1.101853 1.149739 1.098888
P_10 1.071607 1.022890 1.015657 1.117272 1.088625 1.055610
P_10 1.169640 1.037755 1.141773 1.194676 1.084405 1.142938
P_10 1.026028 1.105607 1.024788 0.807804 0.786836 0.741217
P_10 0.673733 0.535286 0.488932 0.441194 0.420686 0.367921
P_10 0.365509 0.404076 0.465366 0.547852 0.634123 0.743407
P_10 0.851636 0.929145 0.974644 1.181053 1.219430 1.172812
P_10 1.405485 1.375571 1.332655 1.334870 1.274852 1.367411
P_10 1.202331 1.229791 1.114136 1.115566 1.116545 0.987306
P_10 1.105829 1.032644 1.071826 1.061737 1.047058 1.099039
P_10 1.164864 1.119432 1.155503 0.988121 1.207099 1.210357
P_10 1.082762 1.006302 0.885176 0.946605 0.873245 0.771542
P_10 0.695044 0.597278 0.480706 0.434264 0.385461 0.393602
P_10 0.408036 0.426556 0.486308 0.614897 0.634623 0.798532
P_10 0.923681 1.029403 1.048142 1.258134 1.314570 1.575094
P_10 1.465893 1.475574 1.513053 1.589026 1.445503 1.509812
P_10 1.286919 1.315122 1.190680 1.162483 1.120735 1.077679
P_10 1.123593 1.130771 1.169686 1.028884 1.057622 1.133408
P_10 1.140685 1.099207 1.135885 1.074853 1.221818 1.119417
P_10 0.953132 0.919220 0.957666 0.869104 0.890440 0.766947
P_10 0.742986 0.627671 0.539582 0.533648 0.489664 0.435874
P_10 0.424900 0.389020 0.438599 0.489211 0.540557 0.584390
P_10 0.630776 0.803570 0.909151 0.988038 1.037612 1.168433
P_10 1.192703 1.135845 1.242114 1.323444 1.345230 1.282520
P_10 1.217731 1.114217 1.300818 1.123569 1.164339 1.156127
P_10 1.063254 1.025699 1.171992 1.204256 1.114579 1.095227
P_10 1.214267 1.038148 1.173424 1.034054 1.103308 1.009358
P_10 0.945622 0.942634 0.931847 0.741381 0.761296 0.655897
P_10 0.581339 0.571377 0.527628 0.535576 0.431518 0.424821
P_10 0.458147 0.413807 0.405183 0.430859 0.481158 0.493663
P_10 0.537018 0.619255 0.653181 0.712801 0.791630 1.033702
P_10 0.945482 0.900767 1.121902 1.121980 1.040754 1.154252
P_10 1.208681 1.177702 1.225522 1.171872 1.100497 1.017642
P_10 1.044331 1.041035 1.028277 0.990449 1.002205 1.024944
P_10 1.001128 1.115707 1.047511 1.115147 1.102086 0.933347
P_10 1.091971 0.901540 0.900091 0.886262 0.775328 0.670938
P_10 0.633222 0.544183 0.481941 0.387933 0.362392 0.327646
P_10 0.355302 0.367732 0.419611 0.535410 0.569138 0.706635
P_10 0.865053 0.948523 0.987769 1.159515 1.271688 1.340849
P_10 1.346247 1.402843 1.537208 1.438567 1.327396 1.375558
P_10 1.449716 1.270234 1.226316 1.061917 1.075241 1.031670
P_10 0.979340 0.831341 0.969292 1.051696 1.040148 1.039219
P_10 1.138945 1.115679 1.112702 1.174150 1.225768 1.239437
P_10 1.184505 1.016276 1.004660 0.991816 0.816015 0.809182
P_10 0.693846 0.638726 0.511969 0.404852 0.383855 0.354564
P_10 0.361852 0.412125 0.436435 0.529880 0.647960 0.696572
P_10 0.747623 0.881981 0.996451 1.145013 1.200670 1.241033
P_10 1.253490 1.407020 1.323051 1.293316 1.301377 1.319274
P_10 1.256560 1.284220 1.163599 1.094693 1.078271 0.994895
P_10 0.991756 0.992850 1.119644 0.948156 1.051049 1.109194
P_10 1.168262 1.113549 1.076890 1.235805 1.288538 1.282842
P_10 1.088854 1.026500 1.039981 0.875174 0.871868 0.761264
P_10 0.619578 0.541947 0.475643 0.401950 0.396142 0.337236
P_10 0.389792 0.466427 0.489040 0.549484 0.546177 0.728471
P_10 0.919101 0.919378 1.027396 1.143421 1.240634 1.261009
P_10 1.215833 1.455276 1.449650 1.398432 1.420874 1.191615
P_10 1.289562 1.295878 1.204721 1.235279 1.109779 1.077036
P_10 1.084247 1.099939 1.057676 1.076201 1.107847 1.118201
P_10 1.155086 1.110826 1.073968 1.130595 1.063331 1.152837
P_10 1.066947 1.016785 1.010445 0.901017 0.787023 0.695300
P_10 0.670635 0.566736 0.493248 0.413347 0.361539 0.329496
P_10 0.377847 0.403779 0.459630 0.543133 0.653010 0.674692
P_10 0.869045 1.051087 1.077179 1.381373 1.373247 1.257531
P_10 1.428977 1.310387 1.309691 1.359270 1.342878 1.200833
P_10 1.234653 1.211716 1.147019 1.018653 1.009189 0.978683
P_10 1.045001 1.094235 1.013967 1.151883 1.115360 1.059160
P_10 1.178231 1.196525 1.223354 1.118375 1.215213 1.116714
P_10 1.152595 1.055768 1.020863 0.912069 0.877425 0.828397
P_10 0.718474 0.573223 0.535222 0.452641 0.438406 0.366625
P_10 0.438368 0.418969 0.535099 0.638310 0.694881 0.755417
P_10 0.916374 1.133092 1.225136 1.262263 1.445480 1.447966
P_10 1.739781 1.575620 1.422566 1.523990 1.501963 1.620382
P_10 1.386402 1.407011 1.321603 1.170754 1.184443 1.128895
P_10 1.325149 1.203166 1.077959 1.212128 1.092031 1.172721
P_10 1.090864 1.294787 1.170566 1.195920 1.019521 1.029357
P_10 1.138482 0.941365 0.970160 0.948934 0.884935 0.852150
P_10 0.777102 0.627258 0.541560 0.506604 0.457409 0.424514
P_10 0.397660 0.399767 0.458869 0.470046 0.554691 0.569833
P_10 0.703266 0.784684 0.859992 0.904340 1.104759 1.131035
P_10 1.080760 1.262058 1.263013 1.285001 1.251527 1.406258
P_10 1.275383 1.294969 1.194321 1.181505 1.253903 1.148727
P_10 1.077436 1.230300 1.229304 1.097410 1.134770 1.129307
P_10 1.190813 1.166400 1.159209 1.074512 1.109145 0.982477
P_10 0.972476 0.863970 0.898868 0.793891 0.730387 0.703770
P_10 0.655841 0.609081 0.563256 0.500278 0.451443 0.436862
P_10 0.420306 0.433810 0.438885 0.462664 0.442915 0.476631
P_10 0.592667 0.630559 0.709416 0.842227 0.839773 0.868601
P_10 1.043335 1.050785 1.181391 1.207332 1.078360 1.105277
P_10 1.249061 1.220908 1.172147 1.051541 1.064418 1.015968
P_10 1.037103 1.032232 0.936721 1.006291 0.970261 1.079172
P_10 1.214892 1.116154 1.158812 1.075558 1.127271 0.997307
P_10 1.030081 0.987527 0.996981 0.821771 0.804619 0.713798
P_10 0.597709 0.549217 0.516129 0.393825 0.385993 0.376711
P_10 0.367825 0.401792 0.440308 0.512013 0.597336 0.703099
P_10 0.842424 1.011735 1.017670 1.236940 1.326587 1.356104
P_10 1.476320 1.500129 1.479453 1.440197 1.368630 1.368053
P_10 1.421867 1.341359 1.281818 1.233766 1.013640 0.978010
P_10 1.009645 1.068869 0.988853 1.016140 1.019634 1.110479
P_10 0.978455 1.080308 1.173716 1.255579 1.101423 1.251964
P_10 1.273870 1.125350 1.107123 0.917472 0.942983 0.686184
P_10 0.717632 0.609450 0.474987 0.445430 0.424352 0.383516
P_10 0.400196 0.402477 0.436134 0.531358 0.649679 0.715021
P_10 0.827065 0.973205 1.011516 1.088112 1.154920 1.126065
P_10 1.346918 1.419234 1.367739 1.351701 1.298549 1.261499
P_10 1.297307 1.195477 1.283245 1.176353 1.065944 0.983354
P_10 1.030709 1.074739 1.061918 1.102944 1.001238 1.127306
P_10 1.227848 1.141602 1.229786 1.256545 1.225605 1.126890
P_10 1.234919 0.969092 1.148188 0.863063 0.837556 0.669203
P_10 0.647498 0.544912 0.499057 0.418444 0.386293 0.372111
P_10 0.417796 0.431560 0.455515 0.578288 0.656209 0.815884
P_10 0.950534 0.973812 1.087719 1.194383 1.203484 1.395552
P_10 1.434102 1.627493 1.274612 1.498910 1.297293 1.293252
P_10 1.314180 1.251896 1.168853 1.343671 1.131584 1.113440
P_10 1.216428 1.085356 1.145168 1.136397 1.045049 1.229789
P_10 1.103560 1.157812 1.225354 1.207257 1.211382 1.131733
P_10 1.181480 1.138927 1.065495 0.961586 0.877101 0.711741
P_10 0.685745 0.561443 0.482056 0.439699 0.389726 0.365561
P_10 0.373093 0.394228 0.484162 0.548164 0.715902 0.815606
P_10 0.897170 1.081542 1.184961 1.205604 1.215446 1.276569
P_10 1.318858 1.256204 1.451445 1.357226 1.347591 1.292726
P_10 1.254965 1.175978 1.192960 1.132163 1.165728 1.087637
P_10 1.240640 1.020051 1.061737 1.114997 1.076742 1.051933
P_10 1.211978 1.217436 1.099324 1.241182 1.202882 1.256603
P_10 1.064156 1.094796 1.003039 0.883568 0.913728 0.791948
P_10 0.743559 0.573647 0.503073 0.468298 0.406874 0.372310
P_10 0.433069 0.458120 0.500434 0.610742 0.755143 0.807950
P_10 1.075184 1.025699 1.195984 1.348564 1.496141 1.480482
P_10 1.501612 1.584865 1.724360 1.596522 1.513986 1.488765
P_10 1.414053 1.378930 1.317922 1.219535 1.192381 1.098040
P_10 1.201034 1.171139 1.179881 1.076182 1.178265 1.171318
P_10 1.270927 1.076836 1.103603 1.195004 1.085028 1.153829
P_10 1.152469 1.106134 1.048913 0.969937 0.914161 0.811836
P_10 0.748347 0.648070 0.624603 0.568251 0.495236 0.482177
P_10 0.440203 0.416661 0.455977 0.558737 0.564314 0.625842
P_10 0.754614 0.808569 0.901046 0.971276 1.082111 1.140103
P_10 1.127664 1.169528 1.252012 1.361439 1.380572 1.281699
P_10 1.377689 1.375103 1.231831 1.223710 1.166186 1.131481
P_10 1.116353 1.185448 1.284616 1.163083 1.192147 1.118459
P_10 1.138540 1.089865 1.100105 1.141499 1.093350 1.081781
P_10 0.886798 0.960693 0.817436 0.880180 0.748562 0.705106
P_10 0.549683 0.604161 0.521731 0.523838 0.477677 0.459308
P_10 0.472465 0.434394 0.444520 0.436179 0.531393 0.528057
P_10 0.563886 0.621426 0.704418 0.770007 0.899937 0.854733
P_10 0.999318 1.042128 1.228328 1.301245 1.193559 1.173029
P_10 1.210449 1.217140 1.089173 1.089044 1.108331 1.125400
P_10 1.098408 1.082141 0.957786 1.084985 1.068772 1.115771
P_10 1.148117 1.013736 1.211275 1.092949 1.026793 1.074553
P_10 1.137490 1.020808 0.901168 0.911002 0.773898 0.725530
P_10 0.658881 0.530931 0.484858 0.457638 0.410645 0.388332
P_10 0.393145 0.424010 0.484712 0.544189 0.631379 0.748480
P_10 0.849521 1.013297 1.148161 1.128965 1.351018 1.420899
P_10 1.554807 1.434990 1.486021 1.368580 1.438224 1.430424
P_10 1.406175 1.355897 1.327850 1.195409 1.087803 1.103514
P_10 0.968453 0.994246 0.933986 0.976101 1.023779 1.103340
P_10 1.123387 1.174466 1.160617 1.244347 1.179745 1.218960
P_10 1.157269 1.124191 1.071429 1.007291 0.933797 0.763986
P_10 0.647412 0.564007 0.507327 0.403791 0.401268 0.401153
P_10 0.393776 0.422754 0.490835 0.578361 0.596309 0.762015
P_10 0.885925 0.935592 1.025594 1.058003 1.144376 1.403216
P_10 1.374888 1.370704 1.407644 1.448787 1.486494 1.352662
P_10 1.293424 1.353773 1.238821 1.190444 1.134205 1.116469
P_10 1.078853 1.050101 0.992696 1.003632 1.120660 1.084969
P_10 1.187132 1.170985 1.255336 1.203155 1.261144 1.226398
P_10 1.103564 1.173624 1.095383 1.003169 0.857036 0.737731
P_10 0.760776 0.585090 0.541744 0.422922 0.402526 0.368328
P_10 0.407875 0.430532 0.504731 0.625722 0.627179 0.729828
P_10 0.885196 1.050610 1.145240 1.228699 1.177187 1.392412
P_10 1.313776 1.446246 1.375407 1.377340 1.585162 1.416701
P_10 1.394464 1.337075 1.251556 1.222106 1.114758 1.206785
P_10 1.179497 1.105574 1.038015 1.116626 1.096420 1.093144
P_10 1.189813 1.200194 1.193757 1.316903 1.188209 1.275618
P_10 1.259928 1.138745 1.112629 0.955369 0.798745 0.693175
P_10 0.688456 0.613443 0.497101 0.468791 0.398818 0.377191
P_10 0.436757 0.413452 0.496054 0.527787 0.661597 0.726925
P_10 0.833301 0.993880 1.110750 1.282725 1.287833 1.376681
P_10 1.356204 1.380488 1.291682 1.371792 1.419216 1.309844
P_10 1.349836 1.278359 1.189299 1.192014 1.062085 1.129689
P_10 1.110964 1.156046 1.134929 1.113416 1.075266 1.228398
P_10 1.224468 1.267698 1.150815 1.112842 1.260975 1.198916
P_10 1.102224 1.167791 1.080268 1.056017 0.823025 0.881292
P_10 0.766759 0.611445 0.550786 0.459070 0.398527 0.417347
P_10 0.418234 0.487980 0.555608 0.626276 0.705379 0.888849
P_10 0.995599 1.138497 1.245758 1.325400 1.410221 1.676228
P_10 1.583663 1.669375 1.644563 1.505001 1.712320 1.620729
P_10 1.450064 1.356570 1.444957 1.320367 1.311397 1.235181
P_10 1.231493 1.205115 1.210802 1.220462 1.126165 1.248150
P_10 1.187420 1.133870 1.169804 1.225964 1.187259 1.248782
P_10 1.025571 1.117189 0.982320 0.952857 0.831988 0.786511
P_10 0.743652 0.671007 0.597955 0.547835 0.495222 0.438990
P_10 0.442225 0.442360 0.462654 0.539567 0.560644 0.658933
P_10 0.734552 0.796840 0.834864 1.089684 1.173400 1.064096
P_10 1.183914 1.271877 1.356701 1.327944 1.324318 1.476129
P_10 1.244447 1.402376 1.361911 1.268128 1.295238 1.134622
P_10 1.211780 1.170727 1.104363 1.199702 1.273830 1.122927
P_10 1.169589 1.171061 1.195179 1.169376 1.083145 1.090127
P_10 0.944835 0.981243 0.877900 0.796937 0.778362 0.734439
P_10 0.656386 0.590744 0.581195 0.512289 0.564818 0.516622
P_10 0.431952 0.395255 0.474400 0.457937 0.494729 0.569983
P_10 0.554785 0.643056 0.754716 0.815735 0.895907 0.913197
P_10 1.056103 1.115696 1.237759 1.171748 1.357743 1.318812
P_10 1.212777 1.268360 1.061818 1.252950 1.161959 1.149058
P_10 1.174800 1.066167 0.938666 1.111090 1.055570 1.046224
P_10 1.141741 1.065226 1.141107 1.117378 1.117422 1.095343
P_10 1.043613 1.009591 0.994080 0.953027 0.754379 0.769520
P_10 0.640822 0.594060 0.491675 0.434692 0.394757 0.371714
P_10 0.345634 0.409581 0.448593 0.562267 0.704323 0.746616
P_10 0.798766 0.938629 1.111507 1.206662 1.349719 1.348449
P_10 1.451541 1.582154 1.619389 1.601843 1.629437 1.310248
P_10 1.398842 1.354244 1.156819 1.239498 1.152704 0.964827
P_10 1.053161 0.978990 1.059246 0.947804 1.039514 1.158542
P_10 1.121570 1.205495 1.199006 1.148847 1.288376 1.167385
P_10 1.331654 1.123549 0.972777 0.960899 0.961007 0.760970
P_10 0.744444 0.620180 0.503702 0.474281 0.397647 0.387521
P_10 0.391156 0.466553 0.470896 0.569119 0.647446 0.748966
P_10 0.891409 0.926923 1.146266 1.177724 1.307844 1.351618
P_10 1.310284 1.480851 1.407899 1.416285 1.328316 1.466254
P_10 1.393905 1.268069 1.198386 1.115312 1.110619 1.173041
P_10 1.074093 0.989392 0.923064 1.102929 1.055740 1.253755
P_10 1.125242 1.183865 1.294838 1.297976 1.159658 1.343067
P_10 1.244319 1.059711 1.018337 1.005157 0.890176 0.817454
P_10 0.708951 0.531194 0.497190 0.407157 0.429163 0.399917
P_10 0.415640 0.445961 0.536055 0.553253 0.644123 0.767421
P_10 0.899447 0.965632 1.184273 1.176926 1.283051 1.237861
P_10 1.468056 1.456267 1.589639 1.583040 1.386181 1.303439
P_10 1.368492 1.262235 1.223189 1.096062 1.299931 1.252580
P_10 1.181016 1.148421 1.100775 0.993917 1.207494 1.132768
P_10 1.184745 1.306702 1.250963 1.170639 1.318325 1.170657
P_10 1.239700 1.163886 1.058057 0.868140 0.897399 0.760995
P_10 0.755988 0.599327 0.572094 0.440281 0.402460 0.375007
P_10 0.387397 0.442520 0.475016 0.597218 0.705998 0.806619
P_10 0.872612 1.053522 1.170883 1.206426 1.206292 1.353813
P_10 1.490101 1.339036 1.435344 1.477002 1.430600 1.351400
P_10 1.247763 1.292793 1.259295 1.174017 1.176547 1.133031
P_10 1.080418 1.048615 1.180535 1.198700 1.210546 1.170336
P_10 1.174211 1.360536 1.339002 1.179753 1.129465 1.227575
P_10 1.144537 1.073790 1.022378 0.930997 0.975538 0.831519
P_10 0.688745 0.694102 0.524460 0.484140 0.458728 0.422954
P_10 0.428195 0.448314 0.543389 0.662917 0.738272 0.869230
P_10 0.967304 1.115212 1.317367 1.339805 1.515966 1.502187
P_10 1.591797 1.581639 1.756174 1.788109 1.529862 1.533138
P_10 1.549953 1.449751 1.407319 1.385947 1.286580 1.206328
P_10 1.134288 1.189534 1.336822 1.176189 1.154711 1.148242
P_10 1.237865 1.146967 1.112794 1.250702 1.240539 1.227531
P_10 1.106006 1.161557 1.005691 0.946732 0.923330 0.828269
P_10 0.753563 0.692316 0.647592 0.536702 0.522418 0.477840