; Filename: networks/Net1.inp
; WNTR: 0.1.6
; Created: 2019-04-09 13:28:32
[TITLE]
EPANET Example Network 1
A simple example of modeling chlorine decay. Both bulk and
wall reactions are included.

[JUNCTIONS]
;ID                      Elevation       Demand Pattern                 
 10                               710               0                            ;
 11                               710               0                            ;
 12                               700               0                            ;
 13                               695               0                            ;
 21                               700               0                            ;
 22                               695               0                            ;
 23                               690               0                            ;
 31                               700               0                            ;
 32                               710               0                            ;

[RESERVOIRS]
;ID                                   Head                  Pattern
 9                                800                            ;

[TANKS]
;ID                              Elevation           Init Level            Min Level            Max Level             Diameter           Min Volume Volume Curve        
 2                                850             120             100             150            50.5               0                        ;

[PIPES]
;ID                   Node1                Node2                              Length             Diameter            Roughness           Minor Loss               Status
 10                   10                   11                             10530              18             100               0                 Open   ;
 11                   11                   12                              5280              14             100               0                 Open   ;
 12                   12                   13                              5280              10             100               0                 Open   ;
 21                   21                   22                              5280              10             100               0                 Open   ;
 22                   22                   23                              5280              12             100               0                 Open   ;
 31                   31                   32                              5280               6             100               0                 Open   ;
 110                  2                    12                               200              18             100               0                 Open   ;
 111                  11                   21                              5280              10             100               0                 Open   ;
 112                  12                   22                              5280              12             100               0                 Open   ;
 113                  13                   23                              5280               8             100               0                 Open   ;
 121                  21                   31                              5280               8             100               0                 Open   ;
 122                  22                   32                              5280               6             100               0                 Open   ;

[PUMPS]
;ID                   Node1                Node2                Properties          
 9                    9                    10                   HEAD     1                      ;

[VALVES]
;ID                   Node1                Node2                            Diameter Type              Setting           Minor Loss

[TAGS]
;type      name       tag       

[DEMANDS]
;ID        Demand     Pattern   
10         0.0        P_10      
11         150.0      P_11      
12         150.0      P_12      
13         100.0      P_13      
21         150.0      P_21      
22         200.0      P_22      
23         150.0      P_23      
31         100.0      P_31      
32         100.0      P_32      

[STATUS]
;ID        Setting   
[PATTERNS]
;ID        Multipliers

1 1.000000 1.200000 1.400000 1.600000 1.400000 1.200000
1 1.000000 0.800000 0.600000 0.400000 0.600000 0.800000

P_10 0.631346 0.564633 0.509368 0.465066 0.447579 0.414087
P_10 0.368770 0.404781 0.450726 0.560327 0.542813 0.618076
P_10 0.747174 0.942767 0.913160 1.076742 1.205593 1.123177
P_10 1.167536 1.227841 1.278787 1.376483 1.270186 1.247579
P_10 1.203763 1.160191 1.038501 1.116390 1.001168 0.930463
P_10 0.853522 0.841081 0.871467 0.924787 0.947759 0.993780
P_10 1.046078 1.000324 0.979378 1.092411 1.054506 0.971065
P_10 1.076341 0.996388 0.850007 0.918496 0.820090 0.808780
P_10 0.597171 0.568663 0.525423 0.489773 0.431541 0.393969
P_10 0.417170 0.441489 0.462972 0.536805 0.643962 0.647014
P_10 0.721304 0.826818 0.910717 1.014124 1.093327 1.203155
P_10 1.305754 1.291159 1.226397 1.272599 1.137125 1.140660
P_10 1.038588 1.081291 1.047550 1.113349 1.009612 0.977648
P_10 1.018573 0.911895 0.949024 0.977953 1.036615 1.072129
P_10 1.075343 1.153056 1.056247 1.260000 1.196607 1.133701
P_10 1.065814 1.020900 0.970396 0.919007 0.776275 0.719336
P_10 0.704336 0.569223 0.525283 0.520940 0.465711 0.427334
P_10 0.450184 0.450624 0.542199 0.591219 0.639531 0.762913
P_10 0.778559 0.914057 0.997102 1.080346 1.082695 1.223416
P_10 1.218533 1.399476 1.173591 1.231196 1.129679 1.207218
P_10 1.211190 1.123983 1.106027 1.042395 1.021365 0.930648
P_10 0.952487 0.973108 1.009434 0.981289 0.959368 0.986929
P_10 1.065217 1.072985 1.115646 1.052987 1.102878 1.032639
P_10 1.099236 1.016519 0.952260 0.943608 0.904682 0.761709
P_10 0.731535 0.599455 0.539032 0.497235 0.468665 0.430498
P_10 0.442889 0.475282 0.530521 0.562382 0.651744 0.753687
P_10 0.816744 0.941851 0.895525 1.004468 1.135885 1.139837
P_10 1.090847 1.244475 1.176111 1.161733 1.199615 1.228642
P_10 1.035033 1.089732 1.053700 0.963703 0.949853 0.979187
P_10 0.997118 0.904600 0.983662 0.902928 0.932445 1.081293
P_10 1.018439 1.078004 1.111693 1.086590 1.153528 1.143074
P_10 1.094762 1.039291 1.029732 0.940447 0.858499 0.736406
P_10 0.719062 0.634450 0.549513 0.503845 0.436803 0.449945
P_10 0.430714 0.467382 0.545595 0.710954 0.666436 0.738513
P_10 0.939307 0.972250 1.161222 1.048627 1.299168 1.301363
P_10 1.448161 1.322147 1.338127 1.426117 1.289447 1.207243
P_10 1.111454 1.145628 1.112619 1.127418 1.135703 1.041261
P_10 0.972767 0.999751 1.030359 1.001292 1.013466 1.027127
P_10 1.105228 1.072746 1.130344 1.095947 1.088678 1.102537
P_10 1.101754 0.974025 1.019326 0.853750 0.860247 0.835789
P_10 0.714841 0.643937 0.586020 0.550020 0.500502 0.508291
P_10 0.471192 0.429398 0.389516 0.514239 0.523060 0.607641
P_10 0.684824 0.738144 0.780735 0.964113 0.966515 0.960298
P_10 1.193655 1.111482 1.196275 1.171197 1.118063 1.158186
P_10 1.173525 1.030658 1.092741 1.057567 1.034448 1.000336
P_10 0.950674 1.038327 1.079489 0.998944 1.100796 1.008074
P_10 0.956886 1.082698 1.004780 1.029435 0.979998 0.967561
P_10 0.892219 0.893011 0.782062 0.797629 0.786827 0.678339
P_10 0.702630 0.638265 0.549394 0.583937 0.515850 0.491207
P_10 0.445423 0.464628 0.473936 0.463757 0.512205 0.505397
P_10 0.630300 0.575048 0.631511 0.692862 0.798079 0.821763
P_10 0.965065 1.017091 1.025652 1.069900 1.028640 1.069362
P_10 1.089815 1.127621 0.914956 1.079936 1.001257 1.053684
P_10 0.921096 0.899203 0.899173 0.998928 0.870935 1.011222
P_10 1.032492 1.034964 1.092424 1.083930 1.034421 0.964068
P_10 0.915587 0.934494 0.948873 0.859681 0.765873 0.679287
P_10 0.687064 0.578675 0.538031 0.482541 0.417120 0.415917
P_10 0.423120 0.449535 0.500375 0.535338 0.614609 0.624370
P_10 0.771629 0.867629 1.005705 1.083504 1.013907 1.139630
P_10 1.308776 1.385499 1.300137 1.272850 1.121602 1.338160
P_10 1.228086 1.155222 1.117029 1.035492 0.966403 0.923100
P_10 0.867542 0.886723 0.871763 0.874913 0.970241 1.055167
P_10 1.032245 1.007733 1.163824 1.136048 1.065175 1.076090
P_10 1.152085 1.101633 0.975534 0.938113 0.829410 0.769001
P_10 0.668509 0.617914 0.537369 0.468461 0.423580 0.416152
P_10 0.397153 0.463248 0.448153 0.554669 0.631660 0.686608
P_10 0.793796 0.929696 1.045716 1.019940 1.124086 1.165129
P_10 1.290004 1.293073 1.232789 1.322976 1.123839 1.136066
P_10 1.205511 1.174718 1.110039 1.014160 0.998858 0.919996
P_10 0.957676 0.911498 0.998943 0.853330 1.007514 1.075114
P_10 1.095522 1.121949 1.171991 1.113972 1.133300 1.116983
P_10 1.104367 1.081188 1.067763 0.899015 0.811132 0.745255
P_10 0.657229 0.621365 0.535151 0.479589 0.449814 0.456186
P_10 0.494501 0.428399 0.443622 0.566114 0.669105 0.694507
P_10 0.793553 0.923388 1.001528 1.082076 1.179283 1.266425
P_10 1.264423 1.272825 1.337812 1.276958 1.173734 1.238830
P_10 1.108897 1.188020 1.076316 1.064287 1.008559 1.025705
P_10 1.008729 1.022252 1.041744 1.002497 1.076508 0.995132
P_10 1.050538 1.149271 1.126340 1.145835 1.155670 1.114637
P_10 1.080980 0.977025 0.939464 0.831980 0.843720 0.782000
P_10 0.684776 0.608277 0.534988 0.497312 0.464920 0.409995
P_10 0.429948 0.502201 0.523768 0.582139 0.633282 0.748969
P_10 0.824015 0.928123 1.025357 0.973379 1.156959 1.163314
P_10 1.242077 1.248276 1.137842 1.109616 1.194226 1.177494
P_10 1.121365 0.913308 1.095303 0.941483 0.956680 0.944920
P_10 0.939137 0.988456 0.906618 0.918919 1.003976 1.041068
P_10 0.941698 1.027005 1.085381 1.157044 0.977167 1.096675
P_10 1.042422 0.991370 1.030608 0.951657 0.794015 0.759169
P_10 0.694766 0.638221 0.549534 0.511275 0.469600 0.450599
P_10 0.472547 0.465219 0.559851 0.639856 0.731191 0.806707
P_10 0.891904 1.008160 1.171714 1.235811 1.243784 1.298411
P_10 1.439128 1.421938 1.300979 1.383349 1.377703 1.215605
P_10 1.183500 1.181430 1.049557 1.155899 0.984089 1.054699
P_10 0.996322 0.943211 1.116475 1.060096 1.036156 1.110592
P_10 1.096920 1.096043 1.020378 1.200996 1.065861 1.061689
P_10 1.052686 1.030030 0.916356 0.881751 0.924782 0.802266
P_10 0.751086 0.611667 0.593233 0.580055 0.511431 0.497937
P_10 0.495883 0.450464 0.445303 0.520343 0.524141 0.666085
P_10 0.699742 0.742415 0.803238 0.943490 1.037985 1.104499
P_10 1.069430 1.108147 1.165917 1.086888 1.125490 1.121542
P_10 1.065235 1.116253 1.200370 1.080675 1.071950 1.041204
P_10 1.117429 1.087622 0.982660 0.987135 0.994929 1.091013
P_10 1.067271 1.110141 1.091994 1.033273 1.096755 0.943956
P_10 0.918709 0.850831 0.820366 0.737602 0.786799 0.683953
P_10 0.672266 0.556767 0.556219 0.583514 0.502373 0.486654
P_10 0.489075 0.459376 0.435561 0.497176 0.483121 0.526976
P_10 0.577018 0.656176 0.668722 0.723747 0.835696 0.941809
P_10 0.906911 0.957881 0.967413 1.003765 1.162233 1.095102
P_10 1.099254 1.021636 1.103790 1.031429 1.003741 0.890490
P_10 0.976423 0.906536 1.029515 0.808613 1.011310 0.929567
P_10 0.981075 1.036801 1.004944 1.072181 1.055615 1.075962
P_10 0.996777 0.954131 0.927818 0.877743 0.775011 0.740722
P_10 0.565791 0.567958 0.499385 0.448091 0.421369 0.403457
P_10 0.411116 0.433871 0.470678 0.496250 0.614182 0.656554
P_10 0.787584 0.892114 0.972901 1.036706 1.175625 1.174540
P_10 1.217254 1.314980 1.238662 1.289636 1.354636 1.212868
P_10 1.275297 1.405092 1.081104 1.050572 0.938481 0.956583
P_10 0.906486 0.868502 0.890447 0.885661 0.888313 1.092750
P_10 1.021054 0.982243 0.932966 1.032238 1.097591 1.160506
P_10 0.937045 1.037661 1.050813 0.966915 0.856289 0.776196
P_10 0.657363 0.614671 0.560608 0.490246 0.478509 0.397317
P_10 0.379186 0.419668 0.461789 0.514263 0.651602 0.708793
P_10 0.747636 0.921886 0.891406 1.051702 1.186514 1.246299
P_10 1.150533 1.153570 1.240702 1.194359 1.220077 1.239009
P_10 1.159871 1.116813 1.089298 0.995362 0.946171 0.933552
P_10 0.914094 0.907392 0.953521 0.929045 0.915920 1.009135
P_10 1.094118 1.181064 1.083249 1.148436 1.192006 1.070027
P_10 1.043809 1.055757 1.065688 0.831968 0.851303 0.829818
P_10 0.670718 0.582880 0.497172 0.488610 0.462960 0.449829
P_10 0.415994 0.491615 0.487845 0.585411 0.646269 0.687380
P_10 0.841722 0.892483 1.012760 1.069769 1.118343 1.181179
P_10 1.191925 1.238933 1.251962 1.158737 1.197401 1.221012
P_10 1.291541 1.236195 1.138598 1.089643 1.118858 0.917028
P_10 1.069235 1.007874 1.054884 1.004722 1.012178 1.075909
P_10 1.098930 1.089185 1.191519 1.236200 1.114417 1.065372
P_10 1.140512 1.031475 1.057187 0.921644 0.880298 0.788778
P_10 0.743283 0.593576 0.566380 0.426439 0.467902 0.457742
P_10 0.462602 0.477273 0.554512 0.567970 0.568891 0.756224
P_10 0.851176 0.872516 0.978950 1.156336 1.150927 1.258146
P_10 1.290281 1.210560 1.334982 1.215810 1.185529 1.178797
P_10 1.108702 1.070926 1.104141 1.007091 1.030022 0.897729
P_10 0.998222 0.998243 0.998895 0.867655 0.965078 1.117385
P_10 1.065803 1.102817 1.196064 1.091878 1.186231 1.133268
P_10 1.171308 1.066409 1.006583 0.945682 0.900077 0.789903
P_10 0.745119 0.581528 0.546051 0.515307 0.439769 0.444964
P_10 0.492699 0.465346 0.530810 0.610532 0.735882 0.817753
P_10 1.005161 0.973172 1.137960 1.328744 1.323151 1.317684
P_10 1.292744 1.407780 1.404917 1.409167 1.443262 1.285638
P_10 1.235358 1.091981 1.063407 1.046739 1.062720 1.095629
P_10 0.953198 1.060645 1.032049 1.043841 0.990036 1.103277
P_10 1.091350 1.155785 1.185729 1.206328 1.113630 1.033429
P_10 1.046778 1.068899 1.011282 0.948456 0.910630 0.852171
P_10 0.765220 0.665819 0.640629 0.605655 0.578202 0.468946
P_10 0.442252 0.479098 0.502550 0.523664 0.498676 0.590449
P_10 0.733271 0.719287 0.885274 0.886620 0.977713 1.094260
P_10 1.171370 1.060119 1.231068 1.178559 1.233572 1.198139
P_10 1.186042 1.117390 1.101395 1.047077 1.077710 1.065267
P_10 1.017342 1.006350 1.119165 1.129180 1.045112 1.055087
P_10 1.114923 1.096160 1.059055 1.062772 1.099647 0.912108
P_10 0.978097 0.944007 0.970485 0.800568 0.733731 0.707330
P_10 0.683478 0.584963 0.597397 0.598209 0.527177 0.524891
P_10 0.508593 0.499787 0.463126 0.501836 0.536224 0.526500
P_10 0.551004 0.653375 0.739362 0.761223 0.760362 0.851122
P_10 0.955822 1.083877 1.042100 1.067410 1.137181 1.027196
P_10 1.212338 1.063327 1.131723 1.069407 0.965235 0.994974
P_10 0.993009 0.927612 0.970533 0.998977 0.982177 0.898618
P_10 1.066560 1.069705 1.078475 1.049387 1.123149 1.135857
P_10 1.019014 0.990863 0.940961 0.880954 0.767163 0.752185
P_10 0.666866 0.627516 0.555356 0.478000 0.469914 0.419620
P_10 0.412774 0.440840 0.499924 0.500788 0.634091 0.760783
P_10 0.788004 0.861957 1.127970 1.079520 1.234319 1.244516
P_10 1.375878 1.424302 1.333340 1.332051 1.286570 1.300418
P_10 1.136128 1.142627 1.223397 1.134274 0.952498 0.933927
P_10 0.928833 0.895722 0.971018 0.947245 0.973320 0.849207
P_10 1.082289 1.209048 1.086736 1.045971 1.097349 1.102505
P_10 1.171751 1.077343 1.083424 0.966710 0.873903 0.855665
P_10 0.690320 0.666014 0.482348 0.496300 0.453677 0.442094
P_10 0.420283 0.439570 0.439444 0.532485 0.627083 0.689056
P_10 0.845188 0.921712 1.003367 1.031843 1.181492 1.309567
P_10 1.189253 1.304080 1.286869 1.206419 1.317566 1.228740
P_10 1.079147 1.133191 1.164923 1.030450 1.077670 1.040999
P_10 1.018259 1.019269 1.025656 0.995230 1.072295 0.904719
P_10 1.094939 1.182251 1.184319 1.126762 1.298106 1.214081
P_10 1.193675 1.015515 1.097593 0.947031 0.839969 0.752587
P_10 0.696955 0.592871 0.572524 0.502527 0.434323 0.427276
P_10 0.421069 0.478495 0.621384 0.594024 0.610491 0.771366
P_10 0.790860 0.930250 1.014318 1.124753 1.089333 1.189644
P_10 1.290147 1.254239 1.403072 1.328765 1.251399 1.295037
P_10 1.102148 1.224763 1.234054 0.996937 1.115297 0.954932
P_10 0.990045 0.965441 1.048505 1.097033 0.959701 1.155873
P_10 1.159875 1.065003 1.123531 1.192677 1.067737 1.201447
P_10 1.174348 1.089672 0.990076 0.998622 0.883490 0.734058
P_10 0.694897 0.626807 0.553730 0.552577 0.443708 0.467596
P_10 0.449927 0.548223 0.571807 0.572105 0.656969 0.803841
P_10 0.875825 0.928488 1.017358 1.065322 1.162687 1.254683
P_10 1.221992 1.280758 1.299116 1.120723 1.149424 1.209989
P_10 1.178715 1.169009 1.105182 0.979875 1.029375 0.958989
P_10 1.065362 0.981239 1.074747 1.146678 1.115896 1.117449
P_10 1.224810 1.188208 1.102646 1.103274 1.190528 1.250061
P_10 1.136516 1.193307 0.957817 1.026210 0.947770 0.805078
P_10 0.694213 0.654452 0.570118 0.519650 0.450097 0.456307
P_10 0.460438 0.503203 0.576396 0.593038 0.788736 0.891563
P_10 0.911421 1.079002 1.236664 1.186743 1.360601 1.366768
P_10 1.461185 1.387126 1.473146 1.471641 1.344566 1.371084
P_10 1.276792 1.266929 1.110086 1.170798 1.067442 1.105590
P_10 1.063006 1.190544 1.174876 1.168246 1.099693 1.132937
P_10 1.120283 1.045155 1.089386 1.184385 1.229539 1.118014
P_10 1.054944 1.025062 1.009886 1.014148 0.896597 0.824699
P_10 0.727207 0.647143 0.635393 0.638743 0.483647 0.516411
P_10 0.467558 0.496246 0.445311 0.527811 0.576887 0.648413
P_10 0.705600 0.774137 0.787226 0.935982 1.018482 1.104845
P_10 1.180760 1.165612 1.301444 1.166798 1.098444 1.202879
P_10 1.116635 1.161103 1.191705 1.184355 1.059958 1.083286
P_10 1.100149 1.111147 1.168857 1.063388 1.028842 1.121043
P_10 1.077093 1.131819 1.191455 1.126711 1.165484 0.989927
P_10 1.023996 0.915316 0.805077 0.893253 0.815753 0.786720
P_10 0.684104 0.702229 0.651815 0.518864 0.523079 0.435063
P_10 0.488945 0.528212 0.526314 0.490212 0.536430 0.549126
P_10 0.604854 0.673627 0.693716 0.729761 0.811222 1.058987
P_10 0.922922 1.025045 1.047734 1.153776 1.213069 1.123646
P_10 1.134490 1.086005 1.100367 1.085845 1.113693 0.946948
P_10 1.064198 0.955976 1.002045 0.910227 0.991159 0.983813
P_10 1.049373 1.057846 1.118652 1.152117 1.022033 1.020546
P_10 1.150354 0.987141 0.986001 0.880102 0.837700 0.756939
P_10 0.599723 0.606274 0.538925 0.498196 0.413077 0.446276
P_10 0.418162 0.442786 0.482746 0.523669 0.638667 0.708782
P_10 0.868539 0.905129 0.928700 1.169678 1.187790 1.249601
P_10 1.290087 1.281540 1.241961 1.314568 1.432288 1.289269
P_10 1.310091 1.294125 1.213809 1.066660 1.041843 0.964080
P_10 0.885575 0.986465 0.989949 1.009378 1.057194 1.125257
P_10 1.127186 1.133007 1.060892 1.211221 1.149377 1.148965
P_10 1.174654 1.118366 1.039653 1.025015 0.904554 0.821500
P_10 0.738802 0.646649 0.507459 0.539091 0.453004 0.443837
P_10 0.461285 0.419093 0.523666 0.538287 0.562518 0.689752
P_10 0.802101 0.853304 1.034331 1.082603 1.122422 1.094781
P_10 1.065409 1.219292 1.338821 1.281790 1.227241 1.159878
P_10 1.037749 1.216747 1.131685 0.989229 0.917808 1.049406
P_10 1.082462 0.904922 1.029957 1.047910 1.045182 0.977572
P_10 1.150435 1.187433 1.250189 1.241796 1.166358 1.344487
P_10 1.044703 1.071281 1.032650 0.935483 0.928020 0.760296
P_10 0.770361 0.604362 0.575689 0.512859 0.451780 0.481094
P_10 0.471784 0.455382 0.531525 0.624851 0.705254 0.804942
P_10 0.864295 0.974605 1.090307 1.097667 1.120162 1.169238
P_10 1.247344 1.297867 1.143689 1.309481 1.365058 1.441195
P_10 1.264347 1.149245 1.120785 1.143707 1.123343 1.077952
P_10 1.051857 1.087316 1.058568 1.053865 1.077135 1.189096
P_10 1.121386 1.171295 1.160101 1.258076 1.254006 1.156120
P_10 1.177967 1.148203 1.050107 1.087358 0.940344 0.802422
P_10 0.661279 0.657684 0.542194 0.525924 0.513193 0.438279
P_10 0.465273 0.505140 0.593265 0.555546 0.668799 0.708989
P_10 0.856171 0.985098 0.939825 1.116518 1.259484 1.227620
P_10 1.351821 1.291510 1.293910 1.293491 1.151362 1.179213
P_10 1.189760 1.132278 1.149658 1.084192 0.919786 0.971714
P_10 0.993516 1.028331 1.046851 1.095261 1.105221 1.086146
P_10 1.120303 1.015009 1.102766 1.179970 1.148852 1.190339
P_10 1.195149 1.124549 1.011894 0.899304 0.847239 0.933644
P_10 0.819015 0.641773 0.578860 0.504199 0.480783 0.512306
P_10 0.473857 0.525613 0.553910 0.631814 0.700618 0.918658
P_10 0.986595 1.128917 1.271594 1.336811 1.474661 1.406950
P_10 1.565252 1.403462 1.465066 1.423480 1.355649 1.409819
P_10 1.317811 1.241281 1.155167 1.145747 1.083214 1.152541
P_10 1.131928 0.988682 1.123031 1.262309 1.157306 1.207321
P_10 1.062404 1.103885 1.217759 1.293557 1.172052 1.204428
P_10 1.068126 1.116442 1.034109 0.943587 0.890276 0.872321
P_10 0.779588 0.717247 0.602479 0.575196 0.529340 0.517891
P_10 0.490075 0.541163 0.464517 0.548072 0.520012 0.672916
P_10 0.775900 0.820314 0.906258 0.928120 1.105023 1.152565
P_10 1.309716 1.145147 1.277715 1.163321 1.127200 1.321735
P_10 1.212496 1.241345 1.167420 1.179857 1.138887 1.030071
P_10 1.196248 1.111204 1.074481 1.056742 1.032840 1.098803
P_10 1.121365 1.173193 1.046188 0.995141 1.158745 1.031362
P_10 1.027450 0.990079 0.950246 0.847961 0.829368 0.791004
P_10 0.715922 0.644196 0.666401 0.682569 0.589107 0.507765
P_10 0.518449 0.491569 0.508490 0.533525 0.475771 0.587178
P_10 0.611724 0.636017 0.708472 0.762773 0.895441 0.978853
P_10 1.026981 1.024310 1.079937 1.085944 1.035901 1.166125
P_10 1.070656 1.125110 1.146444 1.086108 1.147164 1.121646
P_10 1.003172 1.059344 0.922475 0.877589 0.951825 1.182116
P_10 1.141202 0.978569 1.065260 1.253752 1.146426 1.131756
P_10 1.040073 1.032467 1.008250 0.950496 0.757902 0.786162
P_10 0.630641 0.587883 0.521350 0.502656 0.432170 0.441117
P_10 0.442037 0.440310 0.526618 0.582424 0.648957 0.703345
P_10 0.897494 0.992079 1.096293 1.121048 1.273419 1.351094
P_10 1.285507 1.328355 1.365038 1.395239 1.401060 1.239058
P_10 1.297133 1.174269 1.171927 1.088387 1.119139 0.958559
P_10 0.924587 1.010485 0.991280 1.084440 1.030119 1.075968
P_10 1.130152 1.021609 1.199105 1.133718 1.183159 1.215225
P_10 1.194989 1.138668 1.129919 1.081617 0.831584 0.787941
P_10 0.697397 0.686234 0.560055 0.529786 0.496104 0.432463
P_10 0.454525 0.456312 0.498447 0.579427 0.665598 0.774786
P_10 0.767267 0.857174 1.039714 1.132516 1.151777 1.373499
P_10 1.203454 1.259849 1.343517 1.276408 1.331143 1.162293
P_10 1.301333 1.199184 1.149933 1.104315 1.069511 1.037524
P_10 0.986716 0.988489 1.015729 1.091221 1.088833 1.112983
P_10 1.139907 1.051998 1.279123 1.252494 1.300061 1.281805
P_10 1.180773 1.108062 1.084811 1.022808 0.862885 0.804040
P_10 0.723075 0.616321 0.589831 0.531810 0.498492 0.403830
P_10 0.468382 0.466664 0.531187 0.608706 0.680630 0.810370
P_10 0.825235 1.012749 1.124799 1.230306 1.269854 1.333427
P_10 1.260665 1.232276 1.305188 1.277213 1.446676 1.279370
P_10 1.247012 1.283786 1.115912 1.166400 1.093073 1.003758
P_10 1.159768 1.004278 0.966976 1.139712 1.126560 1.182365
P_10 1.102256 1.054544 1.248118 1.320965 1.201168 1.223732
P_10 1.229779 0.977260 0.940734 0.925820 0.888102 0.908992
P_10 0.705209 0.579775 0.636282 0.583439 0.493002 0.465062
P_10 0.488852 0.482847 0.576111 0.671623 0.670620 0.768055
P_10 0.901412 1.019403 1.107976 1.073256 1.218842 1.251967
P_10 1.305693 1.296307 1.357074 1.285472 1.358242 1.374599
P_10 1.089633 1.055263 1.058602 1.111357 0.979900 0.974451
P_10 0.992442 0.994516 1.063768 1.022424 1.046881 1.113593
P_10 1.042891 1.186844 1.176238 1.144658 1.246061 1.227349
P_10 1.073507 1.087220 1.115844 1.021654 0.824979 0.797402
P_10 0.748371 0.698750 0.631143 0.484977 0.486614 0.492527
P_10 0.501379 0.499038 0.602839 0.660944 0.702717 0.861799
P_10 0.995375 1.085252 1.304526 1.244185 1.590496 1.494529
P_10 1.592627 1.593703 1.375725 1.489250 1.396578 1.324453
P_10 1.198882 1.317375 1.268957 1.187106 1.089775 1.031516
P_10 1.112608 1.190787 1.034402 1.080191 1.131946 1.137782
P_10 1.248535 1.181480 1.249001 1.104159 1.178614 1.297716
P_10 1.090857 1.008406 1.012971 1.076852 0.873363 0.891183
P_10 0.804394 0.768690 0.677582 0.613734 0.572561 0.569857
P_10 0.493143 0.509766 0.471014 0.534626 0.623954 0.691040
P_10 0.699109 0.829246 0.836373 1.030575 1.012745 1.163693
P_10 1.236972 1.266000 1.252735 1.316153 1.284087 1.164649
P_10 1.327827 1.205522 1.191603 1.127244 1.156083 1.177880
P_10 1.238666 0.946618 1.048231 1.220697 1.074173 1.077536
P_10 1.188971 1.148422 1.175170 1.119770 1.117259 1.082228
P_10 1.039313 0.895781 0.852538 0.795305 0.827053 0.779628
P_10 0.732316 0.679250 0.635720 0.579945 0.596509 0.525868
P_10 0.537888 0.517501 0.498879 0.554932 0.549230 0.564741
P_10 0.583242 0.666957 0.788536 0.833479 0.857536 0.939953
P_10 0.955288 1.057067 1.127981 1.129445 1.195410 1.135372
P_10 1.181279 1.247761 1.091506 1.180226 1.141625 1.065586
P_10 0.980924 0.954790 1.028210 1.028224 0.946297 1.019214
P_10 1.114980 1.198605 1.193888 1.140250 1.102524 1.191960
P_10 1.045710 1.036343 0.895052 0.857764 0.944182 0.732502
P_10 0.742273 0.633401 0.562225 0.515043 0.469476 0.442398
P_10 0.433555 0.476717 0.480599 0.545187 0.667619 0.760030
P_10 0.813650 0.917184 1.028614 1.111527 1.272606 1.313798
P_10 1.350650 1.455815 1.417207 1.456343 1.398321 1.375797
P_10 1.252874 1.161157 1.321557 1.095811 1.147894 0.947415
P_10 0.976810 0.983544 0.865699 1.078002 0.902264 1.151306
P_10 1.058571 1.164396 1.166762 1.222892 1.178566 1.064183
P_10 1.264651 1.170907 0.987227 0.930085 0.970493 0.881285
P_10 0.751032 0.723865 0.563640 0.535862 0.469286 0.431934
P_10 0.447806 0.466726 0.520879 0.572188 0.666340 0.695569
P_10 0.799632 0.939174 1.086635 1.117624 1.242818 1.203799
P_10 1.256513 1.378267 1.331047 1.335638 1.298480 1.305914
P_10 1.314895 1.226616 1.108621 1.118692 1.030731 1.008562
P_10 1.044921 1.100510 1.075600 1.076405 1.060095 1.087276
P_10 1.154650 1.222511 1.261487 1.260053 1.293552 1.275518
P_10 1.128450 1.158237 0.956946 1.010201 1.062459 0.879543
P_10 0.710276 0.666257 0.546609 0.473068 0.485011 0.461916
P_10 0.442108 0.487836 0.555558 0.560972 0.667470 0.837278
P_10 0.778675 0.961948 1.063263 1.131789 1.097035 1.254618
P_10 1.227322 1.380277 1.436162 1.426258 1.320420 1.350931
P_10 1.186459 1.220274 1.240051 1.140057 1.231745 1.081391
P_10 1.088143 1.073025 1.110284 1.080873 1.205038 1.086626
P_10 1.193328 1.235597 1.204750 1.320295 1.216669 1.246138
P_10 1.194208 1.264940 1.111885 0.970455 0.893496 0.921847
P_10 0.852197 0.690908 0.675732 0.519389 0.446656 0.492028
P_10 0.464892 0.525486 0.603351 0.664074 0.699494 0.770622
P_10 0.957136 1.058348 1.079660 1.123661 1.160913 1.408234
P_10 1.276224 1.457133 1.263020 1.311673 1.286584 1.234411
P_10 1.276481 1.170498 1.092149 1.150881 1.112772 1.104247
P_10 1.070753 1.062628 1.071362 1.104292 1.089091 1.066431
P_10 1.157923 1.047205 1.315240 1.168254 1.245740 1.289365
P_10 1.198391 1.119156 1.070916 1.059820 0.888424 0.818473
P_10 0.830267 0.689414 0.600732 0.562586 0.506191 0.460955
P_10 0.507994 0.549280 0.551681 0.658503 0.788198 0.870025
P_10 0.978818 1.135667 1.182322 1.382320 1.500816 1.458571
P_10 1.527688 1.565698 1.457912 1.604481 1.370883 1.497090
P_10 1.371997 1.223669 1.231176 1.225703 1.152585 1.163191
P_10 1.165622 1.102515 1.041887 1.185337 1.120678 1.134963
P_10 1.132067 1.294058 1.355710 1.253984 1.199867 1.046487
P_10 1.272858 1.116689 1.090814 0.984668 0.999676 0.898430
P_10 0.785571 0.753160 0.694188 0.569870 0.532326 0.544761
P_10 0.518015 0.479086 0.556872 0.563349 0.588353 0.686259
P_10 0.764781 0.828284 0.934997 1.037518 0.946739 1.185846
P_10 1.245233 1.206189 1.229923 1.264206 1.181467 1.229680
P_10 1.236829 1.219211 1.195999 1.231103 1.142672 1.161452
P_10 1.072952 1.161456 1.179305 1.235305 1.248167 1.226162
P_10 1.118936 1.134192 1.152963 1.091257 1.108880 1.092244
P_10 0.992466 1.076094 0.961504 0.851146 0.857483 0.790787
P_10 0.768057 0.630892 0.619819 0.617144 0.560608 0.498522
P_10 0.567771 0.538182 0.536426 0.548323 0.539584 0.565387
P_10 0.584403 0.668647 0.761151 0.837456 0.836416 0.955549
P_10 1.074593 1.118654 1.132829 1.103171 1.091985 1.254536
P_10 1.245410 1.165026 1.118987 1.059890 1.117603 1.073555
P_10 1.117183 1.033932 0.986058 1.016577 1.059740 1.131312
P_10 1.125856 1.071748 1.107563 1.134501 1.153606 1.177278
P_10 1.168389 1.100405 0.959911 0.938953 0.851165 0.811136
P_10 0.739961 0.698013 0.604312 0.517443 0.500875 0.457974
P_10 0.441479 0.462466 0.523660 0.542006 0.628184 0.733116
P_10 0.811535 1.006419 1.067796 1.194636 1.308349 1.356767
P_10 1.396918 1.377709 1.529498 1.582194 1.364919 1.472236
P_10 1.339772 1.296719 1.211209 1.106809 1.003494 1.013520
P_10 1.066917 1.049398 0.947768 1.069676 1.031297 1.073907
P_10 1.108993 1.202681 1.199868 1.197308 1.321896 1.186200
P_10 1.112110 1.229248 1.068603 1.046016 1.046917 0.833213
P_10 0.755198 0.673437 0.574747 0.529279 0.463297 0.436777
P_10 0.437341 0.498398 0.552743 0.581057 0.677596 0.795696
P_10 0.845862 0.951385 1.068180 1.109324 1.146793 1.270368
P_10 1.316702 1.310382 1.345547 1.422975 1.414514 1.280655
P_10 1.177032 1.344598 1.200146 1.123404 1.016262 1.032675
P_10 1.045450 1.042582 1.000455 1.095400 1.089836 1.131581
P_10 1.133526 1.215435 1.048523 1.260965 1.208438 1.260556
P_10 1.200377 1.205150 1.120057 0.946219 0.987150 0.809638
P_10 0.785505 0.687135 0.592154 0.510012 0.473457 0.466545
P_10 0.487318 0.512802 0.546053 0.704823 0.717995 0.807072
P_10 0.892903 0.912924 1.135528 1.184461 1.417489 1.311985
P_10 1.343731 1.322109 1.403794 1.280504 1.414612 1.240150
P_10 1.259552 1.298374 1.254421 1.242913 1.201412 1.186421
P_10 1.088954 1.131615 1.147543 1.106907 1.104530 1.168041
P_10 1.106644 1.253166 1.280343 1.134439 1.227922 1.292899
P_10 1.153943 1.216596 1.050278 0.909829 0.971827 0.815718
P_10 0.802946 0.702666 0.616623 0.497106 0.510158 0.484959
P_10 0.463273 0.543082 0.586015 0.554600 0.764918 0.837264
P_10 0.940269 1.090444 1.125198 1.262498 1.204881 1.327759
P_10 1.376345 1.364671 1.426189 1.425539 1.327289 1.174969
P_10 1.251759 1.260687 1.169875 1.107195 1.087225 1.043326
P_10 1.132930 1.076992 1.165474 1.112745 1.137561 1.244053
P_10 1.216880 1.247665 1.241818 1.295644 1.143022 1.324152
P_10 1.222187 1.212281 1.062925 1.019924 0.998126 0.902904
P_10 0.824380 0.697007 0.653481 0.543911 0.473073 0.511617
P_10 0.535315 0.552700 0.560934 0.648374 0.835208 0.922016
P_10 1.027895 1.089349 1.182174 1.377087 1.584464 1.500187
P_10 1.659126 1.674212 1.450169 1.656422 1.614890 1.366988
P_10 1.395065 1.333989 1.216869 1.300032 1.134742 1.261066
P_10 1.079221 1.144631 1.151126 1.095124 1.277251 1.155241
P_10 1.272727 1.142173 1.296217 1.173640 1.286100 1.141229
P_10 1.091078 1.090810 1.128541 1.006617 0.967764 0.965994
P_10 0.799669 0.791406 0.693672 0.629419 0.564927 0.589234