; Filename: networks/Net1.inp
; WNTR: 0.1.6
; Created: 2019-04-09 13:07:50
[TITLE]
EPANET Example Network 1
A simple example of modeling chlorine decay. Both bulk and
wall reactions are included.

[JUNCTIONS]
;ID                      Elevation       Demand Pattern                 
 10                               710               0                            ;
 11                               710               0                            ;
 12                               700               0                            ;
 13                               695               0                            ;
 21                               700               0                            ;
 22                               695               0                            ;
 23                               690               0                            ;
 31                               700               0                            ;
 32                               710               0                            ;

[RESERVOIRS]
;ID                                   Head                  Pattern
 9                                800                            ;

[TANKS]
;ID                              Elevation           Init Level            Min Level            Max Level             Diameter           Min Volume Volume Curve        
 2                                850             120             100             150            50.5               0                        ;

[PIPES]
;ID                   Node1                Node2                              Length             Diameter            Roughness           Minor Loss               Status
 10                   10                   11                             10530              18             100               0                 Open   ;
 11                   11                   12                              5280              14             100               0                 Open   ;
 12                   12                   13                              5280              10             100               0                 Open   ;
 21                   21                   22                              5280              10             100               0                 Open   ;
 22                   22                   23                              5280              12             100               0                 Open   ;
 31                   31                   32                              5280               6             100               0                 Open   ;
 110                  2                    12                               200              18             100               0                 Open   ;
 111                  11                   21                              5280              10             100               0                 Open   ;
 112                  12                   22                              5280              12             100               0                 Open   ;
 113                  13                   23                              5280               8             100               0                 Open   ;
 121                  21                   31                              5280               8             100               0                 Open   ;
 122                  22                   32                              5280               6             100               0                 Open   ;

[PUMPS]
;ID                   Node1                Node2                Properties          
 9                    9                    10                   HEAD     1                      ;

[VALVES]
;ID                   Node1                Node2                            Diameter Type              Setting           Minor Loss

[TAGS]
;type      name       tag       

[DEMANDS]
;ID        Demand     Pattern   
10         0.0        P_10      
11         150.0      P_11      
12         150.0      P_12      
13         100.0      P_13      
21         150.0      P_21      
22         200.0      P_22      
23         150.0      P_23      
31         100.0      P_31      
32         100.0      P_32      

[STATUS]
;ID        Setting   
[PATTERNS]
;ID        Multipliers

1 1.000000 1.200000 1.400000 1.600000 1.400000 1.200000
1 1.000000 0.800000 0.600000 0.400000 0.600000 0.800000

P_10 0.564318 0.517780 0.449070 0.427362 0.410473 0.392699
P_10 0.398682 0.414507 0.463475 0.503760 0.634322 0.694283
P_10 0.749734 0.792384 1.055955 0.976064 1.093387 1.091251
P_10 1.210394 1.231652 1.302150 1.288495 1.230153 1.093623
P_10 1.171980 1.117743 1.000306 1.017772 0.959968 0.954820
P_10 0.923906 0.903386 0.930456 0.963121 0.959492 0.968914
P_10 0.970084 0.908466 1.017518 1.041657 1.034406 1.088451
P_10 1.089388 0.876819 0.914872 0.871398 0.804261 0.747108
P_10 0.652924 0.572940 0.489433 0.430075 0.439089 0.372737
P_10 0.401916 0.440839 0.468224 0.458054 0.583706 0.695315
P_10 0.791248 0.833338 0.900730 0.989608 1.063295 1.048545
P_10 1.241854 1.200775 1.253756 1.282852 1.134275 1.079242
P_10 1.165642 1.060580 1.037007 0.980599 0.958433 0.944206
P_10 0.987304 0.913779 0.959764 1.048752 0.935435 0.977034
P_10 1.152512 1.055729 1.072678 1.046434 1.141957 0.990378
P_10 1.062018 1.023570 1.019472 0.945141 0.751669 0.729788
P_10 0.628747 0.564872 0.505405 0.461514 0.376015 0.389577
P_10 0.400760 0.438013 0.499901 0.575884 0.631554 0.731811
P_10 0.862613 0.750880 0.942222 1.044013 1.115808 1.172429
P_10 1.167712 1.227606 1.178715 1.255422 1.182261 1.052504
P_10 1.255956 1.083563 1.102094 0.990194 1.037010 0.988361
P_10 0.896471 1.046682 0.996750 1.086162 1.003218 1.047550
P_10 1.012374 1.077601 1.058399 1.117354 1.015238 1.125695
P_10 1.123220 0.984240 0.962002 0.887033 0.740981 0.706329
P_10 0.678606 0.571034 0.520147 0.447962 0.411848 0.415569
P_10 0.432427 0.426352 0.522796 0.550199 0.592240 0.682492
P_10 0.843754 0.887555 0.961800 1.042923 1.097094 1.073388
P_10 1.224157 1.303317 1.205362 1.134700 1.079219 1.202481
P_10 1.162530 1.030046 1.126678 1.020138 0.991180 0.970305
P_10 0.907515 1.020124 0.947235 1.007316 0.954351 1.032719
P_10 1.064118 1.111235 1.084833 1.137527 1.032204 1.038649
P_10 1.034839 0.960133 1.044392 0.963455 0.786726 0.703825
P_10 0.636379 0.568418 0.496168 0.482358 0.436617 0.414186
P_10 0.462270 0.443712 0.492259 0.568829 0.680943 0.786500
P_10 0.931439 0.907705 1.041100 1.184460 1.255509 1.353925
P_10 1.458044 1.408131 1.399733 1.446081 1.321468 1.145356
P_10 1.184632 1.259466 1.111492 1.087697 1.070414 1.006858
P_10 1.026829 1.053303 1.011779 1.023674 0.987930 1.050610
P_10 1.165272 1.199347 1.124786 1.131842 1.083621 1.073768
P_10 1.015447 0.913938 0.925394 0.867797 0.762484 0.735888
P_10 0.683861 0.661463 0.605043 0.484150 0.488338 0.476094
P_10 0.478796 0.443256 0.461447 0.463712 0.530016 0.545741
P_10 0.699089 0.668655 0.770280 0.876592 0.930786 1.041493
P_10 1.085021 1.078215 1.163068 1.058450 1.219728 1.184242
P_10 1.153924 1.126836 1.110408 1.106426 1.066119 1.057508
P_10 1.013366 0.956720 1.110673 1.070369 1.065496 1.041094
P_10 1.045583 1.059352 1.038396 1.039515 1.007007 0.925025
P_10 0.844504 0.905968 0.726658 0.760506 0.773895 0.604580
P_10 0.617080 0.597511 0.549546 0.476869 0.488066 0.479996
P_10 0.401824 0.462949 0.412003 0.493709 0.462776 0.486927
P_10 0.618263 0.567879 0.665135 0.783480 0.835726 0.849180
P_10 0.869736 0.960935 1.041343 1.060306 1.066075 0.926799
P_10 1.133243 1.050729 1.065357 0.993395 1.000275 1.002050
P_10 0.944166 0.980550 0.939578 0.956503 0.885388 0.965215
P_10 0.979174 0.956524 1.001387 0.972802 0.912005 1.034722
P_10 0.942841 0.981860 0.790070 0.769763 0.792734 0.612420
P_10 0.575430 0.505995 0.482422 0.432457 0.420981 0.395785
P_10 0.395453 0.392343 0.468172 0.506047 0.634120 0.651149
P_10 0.762527 0.876426 0.876810 1.008840 1.049349 1.103699
P_10 1.372056 1.305572 1.350368 1.267397 1.269480 1.261746
P_10 1.208011 1.059427 1.110068 1.046039 1.022674 0.961280
P_10 0.890044 0.905630 0.908869 0.930560 0.959025 1.009448
P_10 0.976110 1.031617 1.089589 0.966872 1.118694 1.084521
P_10 1.099116 0.981738 1.016723 0.806337 0.883403 0.770525
P_10 0.681372 0.564856 0.514073 0.399773 0.389370 0.376944
P_10 0.414945 0.388284 0.468691 0.501987 0.604408 0.683384
P_10 0.781919 0.898247 0.974734 1.030457 1.152464 1.081468
P_10 1.130446 1.167043 1.311905 1.302061 1.278057 1.203981
P_10 1.089983 1.181635 0.997541 1.044225 0.992977 0.905055
P_10 0.995291 0.939136 0.881198 0.969755 0.958559 0.984063
P_10 0.974799 1.045654 1.157452 1.040522 1.107204 1.036466
P_10 1.062390 1.009997 1.016585 0.808547 0.818589 0.739285
P_10 0.662028 0.588053 0.457480 0.475402 0.442078 0.413626
P_10 0.452382 0.441867 0.487065 0.605232 0.604892 0.647045
P_10 0.804598 0.792945 0.931688 1.142557 1.090104 1.149451
P_10 1.275573 1.193311 1.199787 1.197107 1.239077 1.267605
P_10 1.273595 1.191311 1.077253 0.974077 0.991670 1.029837
P_10 0.939103 0.991405 1.053555 1.076846 0.931368 1.025093
P_10 1.026780 1.062471 0.984443 1.082798 1.087260 1.144563
P_10 0.979293 1.045316 1.029189 0.969512 0.881606 0.715862
P_10 0.663922 0.607239 0.545978 0.471244 0.416467 0.420490
P_10 0.423284 0.439044 0.448998 0.523685 0.594358 0.710535
P_10 0.821207 0.874598 0.948132 0.973038 1.107312 1.169713
P_10 1.236808 1.229883 1.270301 1.281692 1.328114 1.215518
P_10 1.182204 1.178232 1.072968 0.887243 1.092735 0.953612
P_10 0.981989 0.910182 1.053569 1.008814 1.027489 1.057255
P_10 1.018897 0.965129 1.082161 0.989930 1.100115 1.036398
P_10 1.014493 1.083763 0.919928 0.932426 0.827658 0.673977
P_10 0.612184 0.546302 0.543237 0.491463 0.406516 0.387282
P_10 0.413058 0.470656 0.480198 0.631291 0.687254 0.785901
P_10 0.874378 0.978367 1.130293 1.270410 1.317683 1.288424
P_10 1.172076 1.397775 1.427317 1.447457 1.254440 1.259286
P_10 1.397418 1.263293 1.086939 1.089551 1.114086 1.125610
P_10 1.072319 1.003370 0.995000 1.046181 1.036730 1.037147
P_10 1.057667 1.074242 1.066239 1.023944 1.066164 1.048641
P_10 1.056829 0.922102 0.876237 0.901370 0.812666 0.700864
P_10 0.707572 0.633883 0.622124 0.537147 0.515054 0.445608
P_10 0.428274 0.443804 0.488405 0.533767 0.528561 0.665493
P_10 0.697118 0.779447 0.844914 0.902979 0.915586 1.046492
P_10 1.054091 1.153591 1.238630 1.223283 1.147793 1.229544
P_10 1.073364 1.200336 1.156850 1.060910 1.018858 0.988029
P_10 1.108240 1.064007 1.103964 1.111220 1.080809 1.122516
P_10 1.182852 1.093673 0.992238 0.992911 0.917232 0.941692
P_10 0.972220 0.839558 0.812392 0.782617 0.684821 0.661885
P_10 0.616486 0.590939 0.516546 0.528702 0.540086 0.471132
P_10 0.464894 0.499598 0.436844 0.491471 0.483513 0.536452
P_10 0.543977 0.551454 0.665267 0.755804 0.925140 0.824189
P_10 0.925957 0.876397 1.116326 1.053124 1.119771 1.165326
P_10 1.064146 1.174348 1.079625 1.112539 1.117719 0.920993
P_10 1.030923 0.947315 0.924217 0.883603 1.052738 0.895710
P_10 0.969170 1.010689 0.989625 1.041341 1.039469 1.025684
P_10 1.000308 0.956466 0.898352 0.791553 0.696334 0.676706
P_10 0.671086 0.525064 0.473664 0.459922 0.422143 0.392763
P_10 0.395939 0.419155 0.465090 0.541040 0.649148 0.685626
P_10 0.805427 0.948081 0.918458 1.110839 1.157029 1.168432
P_10 1.326907 1.374105 1.293082 1.256661 1.422946 1.241485
P_10 1.257160 1.278162 1.027345 1.013294 0.980550 0.929724
P_10 0.963378 0.942217 0.937146 0.938848 1.057967 1.052153
P_10 1.023418 0.992251 1.069766 1.021237 1.057166 1.015203
P_10 1.031787 1.000080 1.046031 0.905892 0.870823 0.730327
P_10 0.606644 0.629392 0.538422 0.472881 0.419073 0.439263
P_10 0.426324 0.436426 0.446445 0.580100 0.595324 0.688848
P_10 0.790103 0.875120 0.889391 1.033647 1.166310 1.152231
P_10 1.154072 1.246159 1.302363 1.331404 1.210535 1.194717
P_10 1.283952 1.020349 1.086117 1.104606 0.974743 0.945709
P_10 1.072328 0.998137 0.952219 0.956855 1.083270 1.023035
P_10 1.099495 1.094067 1.003087 1.107221 1.184338 1.180880
P_10 1.086911 1.052852 0.894346 0.914012 0.809567 0.755269
P_10 0.673501 0.621831 0.467763 0.448878 0.428052 0.378557
P_10 0.402434 0.434549 0.425764 0.587563 0.663193 0.680650
P_10 0.844429 0.878971 0.901210 1.066647 1.131304 1.154721
P_10 1.326248 1.243461 1.259961 1.310721 1.356108 1.303086
P_10 1.189508 1.245717 1.132304 1.187415 1.103154 1.081531
P_10 1.131471 1.011033 0.937110 1.048879 0.960241 1.041514
P_10 1.082637 1.091511 1.123559 1.052660 1.098771 1.081862
P_10 1.057904 1.056921 0.905842 1.009503 0.789130 0.802583
P_10 0.674854 0.613576 0.516099 0.505687 0.411877 0.408769
P_10 0.412457 0.460044 0.487241 0.563339 0.628352 0.720100
P_10 0.760099 0.942640 0.971211 1.067795 1.168016 1.255249
P_10 1.192970 1.161622 1.256593 1.196767 1.289919 1.123948
P_10 1.066881 1.095349 1.115607 1.090164 1.043275 1.090472
P_10 1.007089 0.987257 1.072153 1.022773 1.013634 0.975866
P_10 0.984172 1.128583 1.130291 1.139584 1.100503 1.127678
P_10 0.999969 1.093061 0.933193 0.819747 0.814929 0.743044
P_10 0.705121 0.603567 0.527297 0.492181 0.436738 0.420538
P_10 0.441367 0.502840 0.528128 0.604979 0.726686 0.869488
P_10 0.868597 1.050642 1.153657 1.236640 1.313182 1.341258
P_10 1.412271 1.420342 1.388611 1.393446 1.300389 1.355195
P_10 1.325541 1.210625 1.143881 1.116152 1.048475 1.134415
P_10 1.053959 1.037634 1.040253 1.220476 1.064865 1.024203
P_10 1.073189 1.040435 1.081120 1.058529 1.057444 1.102329
P_10 1.076374 0.914659 0.955999 0.890978 0.828569 0.725613
P_10 0.691548 0.659191 0.616419 0.557856 0.461156 0.479697
P_10 0.454721 0.460943 0.488813 0.473853 0.558236 0.614471
P_10 0.733216 0.783841 0.856409 0.924424 0.951870 1.098206
P_10 1.157007 1.198563 1.224491 1.151917 1.230652 1.231190
P_10 1.250664 1.110743 1.097890 1.041930 1.038339 1.108268
P_10 0.982659 1.078521 1.131105 1.123614 1.093280 1.162555
P_10 1.188324 1.093491 1.101609 1.115567 0.947594 1.062387
P_10 0.837548 0.872726 0.836916 0.785410 0.766008 0.612697
P_10 0.668448 0.596471 0.527368 0.531591 0.481642 0.504022
P_10 0.453036 0.498682 0.464063 0.469297 0.498184 0.587739
P_10 0.598561 0.680928 0.665976 0.751423 0.875239 0.894648
P_10 0.976196 1.005522 1.094975 1.161383 1.081263 1.111304
P_10 1.147076 1.040589 1.196279 1.079921 0.998034 1.006794
P_10 1.089065 0.969062 1.018337 1.045631 1.032238 0.999746
P_10 1.065699 1.002485 1.082317 1.046945 1.025422 1.013006
P_10 0.995583 0.939789 0.862381 0.827899 0.719990 0.712956
P_10 0.698128 0.545886 0.443800 0.471012 0.450874 0.415408
P_10 0.429551 0.393434 0.513237 0.551372 0.666106 0.733986
P_10 0.837038 0.851988 0.984731 1.147940 1.139510 1.200600
P_10 1.434267 1.285772 1.389945 1.248592 1.281590 1.320668
P_10 1.135022 1.192003 1.100601 1.284965 1.060352 1.055612
P_10 0.982412 0.949151 0.973066 0.941249 1.052464 0.934135
P_10 1.033194 1.025713 1.153411 1.131545 1.080824 1.003440
P_10 1.078644 1.072420 1.045479 0.852744 0.806822 0.745784
P_10 0.637474 0.587888 0.555385 0.465174 0.432811 0.400029
P_10 0.390499 0.420586 0.506756 0.535572 0.620573 0.679164
P_10 0.837182 0.907550 0.899028 0.947621 1.113630 1.267311
P_10 1.208327 1.157584 1.290967 1.335184 1.304365 1.174966
P_10 1.150985 1.076206 1.151653 1.062418 1.018110 0.957283
P_10 1.002469 0.923986 1.020530 1.044878 1.166436 1.079943
P_10 1.129171 1.110486 1.058158 1.137552 1.176873 1.139160
P_10 1.146488 0.975182 0.955389 0.992975 0.800185 0.708513
P_10 0.666659 0.620810 0.550471 0.461702 0.422393 0.442780
P_10 0.422224 0.454301 0.541657 0.549194 0.683343 0.742095
P_10 0.753871 0.919009 1.068545 1.010311 1.076024 1.181224
P_10 1.224180 1.226831 1.203404 1.309923 1.189225 1.280249
P_10 1.237004 1.227269 1.151233 1.059110 1.072205 0.989875
P_10 1.094205 1.031912 1.015528 1.025800 1.069965 1.024201
P_10 1.113531 1.054612 1.140830 1.202868 1.124745 1.091581
P_10 1.096191 1.023017 0.955838 0.920557 0.801867 0.799302
P_10 0.631217 0.546481 0.520098 0.493203 0.442444 0.428687
P_10 0.410654 0.480747 0.508464 0.539792 0.704751 0.762128
P_10 0.854595 0.924103 1.001398 1.095629 1.146685 1.253248
P_10 1.111984 1.263044 1.153127 1.184805 1.242142 1.213593
P_10 1.059975 1.196262 1.128387 1.124485 1.024025 1.078019
P_10 1.005799 1.054744 1.048628 0.995087 1.003984 1.046283
P_10 1.130895 1.180257 1.133311 1.088453 1.137203 1.119528
P_10 1.001956 1.108746 1.049865 0.919051 0.849677 0.776853
P_10 0.739967 0.638941 0.568062 0.524049 0.468471 0.400630
P_10 0.434127 0.430362 0.579260 0.573145 0.720646 0.844866
P_10 0.939275 1.079978 1.138369 1.236674 1.339424 1.393687
P_10 1.398657 1.465590 1.332220 1.463273 1.341471 1.302039
P_10 1.279878 1.248381 1.267655 1.089290 1.190322 1.132593
P_10 1.066715 1.054164 1.096023 0.975156 1.045560 1.091561
P_10 1.116756 1.217475 1.121253 1.071602 1.098835 1.011624
P_10 1.020270 1.038863 0.873256 0.884178 0.889839 0.711296
P_10 0.754191 0.680668 0.612224 0.542779 0.465375 0.498759
P_10 0.485258 0.471832 0.440602 0.513091 0.490635 0.582232
P_10 0.649111 0.748364 0.886378 0.949227 0.995298 1.042869
P_10 1.239707 1.220109 1.223534 1.295944 1.290159 1.168045
P_10 1.202718 1.177028 1.146973 1.224559 1.135476 1.132283
P_10 1.067540 1.113693 1.089975 1.081373 1.044298 1.066610
P_10 1.092617 1.072527 1.090292 1.027396 0.981562 1.012573
P_10 0.871224 0.921518 0.843276 0.810284 0.794859 0.744336
P_10 0.640015 0.596202 0.597201 0.550044 0.483680 0.499820
P_10 0.452467 0.471578 0.514584 0.469987 0.463994 0.550555
P_10 0.605004 0.613756 0.760158 0.758695 0.844032 0.947866
P_10 0.949631 1.014596 1.215179 1.211649 1.111273 1.210394
P_10 1.224349 1.174367 1.174249 1.083517 1.035371 1.044448
P_10 1.078072 0.970064 0.953951 1.084981 0.947786 1.067118
P_10 1.050854 0.984554 1.036888 1.104973 1.024156 1.039367
P_10 1.036424 0.919463 0.882091 0.830860 0.737463 0.589729
P_10 0.651523 0.617884 0.502705 0.510241 0.455060 0.438335
P_10 0.403803 0.418451 0.494390 0.564777 0.676246 0.750854
P_10 0.912528 0.960731 1.011152 1.129311 1.159354 1.254687
P_10 1.338371 1.265943 1.365155 1.469281 1.478622 1.260263
P_10 1.299797 1.231887 1.183275 1.181959 0.978096 1.006212
P_10 1.100956 1.004008 0.950520 0.966587 1.010460 0.958250
P_10 1.065048 1.087372 1.172041 1.150406 1.110821 1.154720
P_10 1.107440 1.000554 0.974239 0.972058 0.859733 0.772832
P_10 0.643965 0.601537 0.491067 0.459213 0.467746 0.418604
P_10 0.406589 0.473067 0.520471 0.595202 0.677498 0.744630
P_10 0.791200 0.863463 1.029752 0.999605 1.161499 1.154232
P_10 1.272101 1.409195 1.125472 1.238820 1.323870 1.234360
P_10 1.200682 1.231630 1.154951 1.029320 1.045145 1.032715
P_10 0.944749 1.062702 0.969566 1.030500 0.944379 0.959784
P_10 1.122115 1.206699 1.126082 1.175201 1.144482 1.243638
P_10 1.303656 1.028694 1.037211 1.019152 0.838705 0.735598
P_10 0.714935 0.550616 0.552303 0.534040 0.456343 0.420206
P_10 0.437177 0.488147 0.496146 0.581852 0.700086 0.762968
P_10 0.851155 0.870716 1.005996 1.025480 1.259950 1.071685
P_10 1.212600 1.168183 1.264241 1.243872 1.325567 1.345886
P_10 1.206426 1.223642 1.299574 1.191045 1.142865 1.125098
P_10 1.062827 1.103449 1.098988 1.004740 1.021191 1.079637
P_10 1.041504 0.990297 1.152583 1.079103 1.137052 1.059100
P_10 1.186262 1.046821 0.951414 0.913328 0.845413 0.731195
P_10 0.744058 0.621833 0.528806 0.512815 0.468561 0.418638
P_10 0.428531 0.490458 0.533758 0.579456 0.640496 0.754804
P_10 0.887226 0.898579 1.022230 1.062856 1.224048 1.271422
P_10 1.299963 1.360652 1.351778 1.271517 1.238848 1.161484
P_10 1.093236 1.284845 1.200381 1.169309 1.037453 1.008443
P_10 1.031091 1.032165 1.098809 1.067554 1.065511 1.008217
P_10 1.087625 1.119297 1.232119 1.209325 1.171618 1.232561
P_10 1.129843 1.104177 1.011973 0.879293 0.877705 0.809145
P_10 0.705629 0.639044 0.556192 0.542234 0.459017 0.417299
P_10 0.467326 0.531874 0.561835 0.607927 0.808428 0.844233
P_10 0.977200 1.141305 1.191815 1.233576 1.375090 1.402962
P_10 1.454839 1.442464 1.431340 1.414756 1.357604 1.322275
P_10 1.456766 1.356440 1.127084 1.280112 1.143835 1.239271
P_10 1.060572 1.124111 1.074005 1.075693 1.153653 1.106182
P_10 1.138081 1.087542 1.171983 1.169363 1.144650 1.044009
P_10 1.107083 1.084627 0.956982 0.996507 0.847563 0.769564
P_10 0.776589 0.660111 0.627265 0.565891 0.508789 0.491840
P_10 0.470657 0.461139 0.511369 0.543406 0.605809 0.654530
P_10 0.745598 0.863972 0.945790 0.933989 0.940603 1.136253
P_10 1.032824 1.125660 1.184796 1.288848 1.156126 1.282270
P_10 1.178595 1.154525 1.234811 1.044931 1.094671 1.098734
P_10 1.112853 1.138293 1.109323 1.138966 1.082567 1.204594
P_10 1.258192 1.042905 1.117884 1.033159 0.951639 0.963024
P_10 1.039529 0.881474 0.866096 0.818845 0.761375 0.720046
P_10 0.691132 0.686880 0.568187 0.538013 0.543006 0.503110
P_10 0.502554 0.455466 0.475459 0.497685 0.531438 0.543441
P_10 0.580375 0.708605 0.664503 0.792948 0.854740 0.917940
P_10 1.011129 1.109213 1.149277 1.247895 1.169850 1.230548
P_10 1.242087 1.102922 1.131455 1.085306 1.040655 1.072145
P_10 1.129094 1.043813 1.026687 0.925576 0.973901 1.146108
P_10 1.114276 1.070761 1.024685 1.080696 1.039689 1.026252
P_10 1.088753 0.986297 0.968757 0.922209 0.820014 0.660633
P_10 0.633662 0.568599 0.539428 0.409820 0.418245 0.467619
P_10 0.426202 0.490842 0.564375 0.536262 0.646413 0.762437
P_10 0.874090 0.948141 0.971770 1.181948 1.185806 1.280331
P_10 1.385641 1.242791 1.240994 1.351655 1.267911 1.342940
P_10 1.424829 1.255170 1.158200 1.156939 1.036002 1.018586
P_10 1.069005 1.028338 0.981506 0.901607 1.051172 1.062240
P_10 1.021519 1.215215 1.089570 1.227569 1.141539 1.031124
P_10 1.153315 1.063221 0.934351 1.028044 0.812285 0.837161
P_10 0.731955 0.595727 0.507097 0.484302 0.455111 0.394004
P_10 0.472581 0.486561 0.480854 0.545996 0.652326 0.724295
P_10 0.870425 0.921190 0.927272 1.096148 1.303946 1.233393
P_10 1.283841 1.338180 1.437988 1.252473 1.209660 1.348023
P_10 1.198489 1.148199 1.181267 1.081156 1.066699 0.982220
P_10 1.056384 1.062504 0.976926 1.047685 1.052080 1.232889
P_10 1.154538 1.119397 1.078795 1.267342 1.188052 1.164126
P_10 1.190675 1.042016 1.104942 0.926638 0.855118 0.777158
P_10 0.675785 0.592766 0.545688 0.519848 0.473671 0.463999
P_10 0.444205 0.492554 0.560792 0.631499 0.707759 0.773670
P_10 0.899534 0.992692 0.988437 1.219416 1.226363 1.211131
P_10 1.329572 1.260342 1.316229 1.312626 1.341621 1.458775
P_10 1.220077 1.127734 1.249683 1.254643 1.178935 1.165644
P_10 1.147279 1.031503 1.092993 1.146490 1.113286 1.057621
P_10 1.179564 1.135852 1.192389 1.218620 1.177789 1.065411
P_10 1.070965 0.979267 1.021325 1.018178 0.898687 0.794946
P_10 0.702903 0.670276 0.580101 0.491265 0.426356 0.457878
P_10 0.423259 0.492267 0.516838 0.610335 0.733121 0.808281
P_10 0.885382 0.994146 1.054113 1.189485 1.275048 1.191224
P_10 1.167328 1.448793 1.288656 1.428316 1.360867 1.369295
P_10 1.259582 1.272969 1.078056 1.091820 1.188829 0.946275
P_10 1.047986 1.059875 1.016486 1.102050 1.120762 1.021437
P_10 1.115691 1.204341 1.150632 1.108269 1.145881 1.181160
P_10 1.159222 1.137448 0.968413 0.944544 0.893118 0.910992
P_10 0.728872 0.616910 0.533686 0.542228 0.452655 0.442906
P_10 0.495489 0.515923 0.611587 0.652670 0.737158 0.867456
P_10 1.004376 1.229383 1.219643 1.297729 1.402713 1.544673
P_10 1.497231 1.504499 1.443120 1.453528 1.439139 1.346275
P_10 1.281765 1.241412 1.157829 1.305201 1.236560 1.210649
P_10 1.078441 1.137959 1.042167 1.268728 1.122696 1.127283
P_10 1.065817 1.201846 1.091017 1.072747 1.215999 1.139682
P_10 1.153893 1.101739 0.933731 1.002167 0.813163 0.905855
P_10 0.755066 0.658088 0.627408 0.554126 0.543781 0.518080
P_10 0.464260 0.470897 0.558486 0.600843 0.557151 0.639307
P_10 0.695589 0.856138 0.983617 0.939137 1.133580 1.160275
P_10 1.135119 1.265456 1.170885 1.376773 1.402157 1.266999
P_10 1.171592 1.206462 1.134375 1.266405 1.075768 1.248148
P_10 1.121671 1.184914 1.092337 1.122834 1.075175 1.194423
P_10 1.187962 1.126415 1.102620 1.075677 1.155253 0.985879
P_10 0.999795 0.931061 0.898547 0.856555 0.756822 0.670695
P_10 0.707563 0.565029 0.558233 0.556183 0.544374 0.506133
P_10 0.509034 0.467281 0.505806 0.530771 0.532511 0.560877
P_10 0.594499 0.711474 0.746637 0.777237 0.901558 1.026084
P_10 0.939432 1.032137 1.080098 1.077245 1.157307 1.231634
P_10 1.215533 1.243171 1.200046 1.235067 1.089729 1.078435
P_10 1.153138 1.042163 1.021507 1.004648 1.064091 1.021808
P_10 1.169799 1.118597 1.116437 1.159747 1.127828 1.075720
P_10 0.982013 1.073245 0.919863 0.872723 0.845911 0.792832
P_10 0.640665 0.542982 0.569001 0.475699 0.495440 0.435499
P_10 0.430775 0.456865 0.440288 0.595952 0.656194 0.757415
P_10 0.898829 0.984173 1.151252 1.241070 1.288556 1.286675
P_10 1.366343 1.365001 1.438602 1.490533 1.385132 1.350620
P_10 1.337473 1.324719 1.172981 1.133947 1.242581 1.072218
P_10 0.991177 1.080680 1.072569 1.046837 1.037452 1.092703
P_10 1.075279 1.133988 1.240656 1.181295 1.206089 1.209027
P_10 1.095940 1.128564 1.038658 0.941216 0.883668 0.716858
P_10 0.724443 0.629107 0.538655 0.471517 0.448691 0.454242
P_10 0.445825 0.448662 0.515269 0.573636 0.684982 0.770631
P_10 0.833282 0.923167 0.999050 1.074114 1.122982 1.265170
P_10 1.295371 1.333047 1.431713 1.319333 1.298055 1.342181
P_10 1.366271 1.223258 1.184375 1.121097 1.053370 1.105958
P_10 1.037678 1.042056 0.979543 0.976671 1.051846 1.090467
P_10 1.056850 1.137568 1.182218 1.251286 1.197617 1.238468
P_10 1.179343 1.114881 1.031784 1.001642 0.917587 0.778314
P_10 0.728694 0.632360 0.564791 0.484258 0.454890 0.477417
P_10 0.531196 0.491259 0.575195 0.594239 0.720110 0.698035
P_10 0.923072 0.959363 1.042867 1.154489 1.176255 1.259133
P_10 1.233421 1.238530 1.426501 1.351014 1.297857 1.373134
P_10 1.327610 1.240768 1.268992 1.130847 1.192057 1.260352
P_10 1.116761 1.125959 1.091594 1.125758 1.010654 0.980713
P_10 1.205476 1.227045 1.145099 1.232553 1.243067 1.246056
P_10 1.211951 1.024569 1.008886 1.015277 0.942607 0.794171
P_10 0.720025 0.712234 0.635030 0.500091 0.512004 0.465741
P_10 0.490123 0.476510 0.565326 0.644709 0.659609 0.765285
P_10 0.830492 0.992266 1.083260 1.146960 1.234955 1.330066
P_10 1.331244 1.524502 1.457803 1.402122 1.284422 1.275981
P_10 1.274450 1.290185 1.150915 1.218142 1.141236 1.048410
P_10 1.125849 1.074569 1.098573 1.126257 1.122897 1.214617
P_10 1.056514 1.122288 1.202116 1.151652 1.218871 1.061955
P_10 1.162410 1.108540 1.134613 0.946272 0.916371 0.779452
P_10 0.684709 0.616738 0.592399 0.505891 0.498555 0.483552
P_10 0.485555 0.492543 0.576790 0.648513 0.823487 0.830725
P_10 0.925975 1.188256 1.313406 1.182919 1.483519 1.455544
P_10 1.571951 1.596497 1.584515 1.500010 1.585069 1.350369
P_10 1.402735 1.293958 1.327140 1.180228 1.191727 1.225360
P_10 1.110032 1.163444 1.202006 1.217463 1.133255 1.055644
P_10 1.248384 1.208443 1.251245 1.116644 1.198522 1.126077
P_10 1.166786 1.096676 0.970955 0.940002 0.922440 0.755980
P_10 0.830172 0.667947 0.648519 0.587297 0.536580 0.535931
P_10 0.488451 0.529863 0.529058 0.565428 0.578165 0.676999
P_10 0.713438 0.849476 0.946981 0.968605 1.067170 1.104407
P_10 1.168956 1.181102 1.277784 1.270306 1.096074 1.421706
P_10 1.244792 1.259694 1.128134 1.133967 1.116607 1.166575
P_10 1.233736 1.058927 1.209902 1.178975 1.254855 1.207904
P_10 1.220332 1.195598 1.109952 1.079937 1.058784 0.996770
P_10 1.062365 0.921887 0.942697 0.912482 0.805505 0.793985
P_10 0.692006 0.662291 0.639216 0.609912 0.582502 0.554381
P_10 0.514946 0.545770 0.478694 0.563869 0.514553 0.662519
P_10 0.649460 0.704761 0.747990 0.786362 0.817362 0.911226
P_10 1.122770 1.082344 1.115673 1.219677 1.193574 1.176575
P_10 1.250218 1.196020 1.083128 1.109389 1.109689 1.062696
P_10 0.981645 1.061704 1.206533 1.060930 1.215656 1.099022
P_10 1.059147 1.151754 1.093324 1.266918 1.067006 1.054832
P_10 1.071802 1.013291 0.977498 0.748750 0.786679 0.741370
P_10 0.640840 0.597677 0.580157 0.481778 0.433220 0.482525
P_10 0.490856 0.427391 0.556354 0.623400 0.716170 0.795883
P_10 0.891869 0.990367 1.073035 1.226503 1.370045 1.328466
P_10 1.430365 1.527993 1.392267 1.612839 1.439509 1.381242
P_10 1.352685 1.259354 1.226692 1.134892 0.962763 1.099135
P_10 1.073272 1.075262 0.930596 0.982925 1.039218 1.075158
P_10 1.046926 1.169189 1.166961 1.252376 1.203506 1.092599
P_10 1.105942 1.105207 1.050998 1.010663 0.855486 0.865473
P_10 0.665907 0.617577 0.597229 0.505221 0.463747 0.470627
P_10 0.473611 0.529290 0.512662 0.494470 0.704272 0.786798
P_10 0.811860 0.961463 1.118701 1.171379 1.284120 1.329010
P_10 1.294463 1.345716 1.376574 1.542978 1.327349 1.237773
P_10 1.307771 1.316212 1.116500 1.206994 1.193808 1.089160
P_10 1.139827 1.029005 1.056528 1.016926 1.044601 1.109001
P_10 1.152777 1.132810 1.263275 1.281242 1.261152 1.244461
P_10 1.182095 1.216020 1.064621 1.027059 0.926968 0.878003
P_10 0.659248 0.669056 0.593629 0.533233 0.491290 0.463537
P_10 0.473369 0.507578 0.556399 0.614008 0.694532 0.764956
P_10 0.976047 1.008995 0.996270 1.130418 1.180396 1.341951
P_10 1.497210 1.410186 1.352156 1.296385 1.476703 1.431283
P_10 1.300385 1.229134 1.258144 1.235052 1.281765 1.208904
P_10 1.105846 1.189983 1.216012 1.072325 1.172421 1.247808
P_10 1.235573 1.095487 1.195462 1.312352 1.275733 1.106986
P_10 1.274115 1.310266 0.995098 0.974204 0.908706 0.865207
P_10 0.682843 0.679986 0.586908 0.478079 0.469262 0.449150
P_10 0.481293 0.476365 0.547045 0.647916 0.681423 0.805888
P_10 0.873183 1.026001 1.216665 1.229684 1.276938 1.254193
P_10 1.349824 1.344000 1.339886 1.362657 1.369739 1.339254
P_10 1.346321 1.243576 1.203898 1.155166 1.161201 1.125908
P_10 1.161521 1.075211 1.189874 1.193877 1.141482 1.227075
P_10 1.162662 1.300468 1.246394 1.238820 1.279871 1.267325
P_10 1.153996 1.200187 1.085473 1.016971 0.947638 0.841749
P_10 0.768435 0.632705 0.595404 0.523589 0.514865 0.458114
P_10 0.507687 0.578252 0.619520 0.668989 0.811118 0.814448
P_10 1.034642 1.229120 1.212296 1.344493 1.521967 1.503762
P_10 1.479982 1.517994 1.687336 1.561630 1.424763 1.376420
P_10 1.343037 1.288497 1.241103 1.261243 1.123984 1.228985
P_10 1.102800 1.197143 1.234604 1.160800 1.141440 1.167220
P_10 1.236164 1.211415 1.248222 1.178634 1.295998 1.140866
P_10 1.094640 1.108461 1.013668 0.991112 0.988245 0.845260
P_10 0.873041 0.713551 0.686492 0.628586 0.574882 0.498378