; Filename: networks/Net1.inp
; WNTR: 0.1.6
; Created: 2019-04-09 13:21:09
[TITLE]
EPANET Example Network 1
A simple example of modeling chlorine decay. Both bulk and
wall reactions are included.

[JUNCTIONS]
;ID                      Elevation       Demand Pattern                 
 10                               710               0                            ;
 11                               710               0                            ;
 12                               700               0                            ;
 13                               695               0                            ;
 21                               700               0                            ;
 22                               695               0                            ;
 23                               690               0                            ;
 31                               700               0                            ;
 32                               710               0                            ;

[RESERVOIRS]
;ID                                   Head                  Pattern
 9                                800                            ;

[TANKS]
;ID                              Elevation           Init Level            Min Level            Max Level             Diameter           Min Volume Volume Curve        
 2                                850             120             100             150            50.5               0                        ;

[PIPES]
;ID                   Node1                Node2                              Length             Diameter            Roughness           Minor Loss               Status
 10                   10                   11                             10530              18             100               0                 Open   ;
 11                   11                   12                              5280              14             100               0                 Open   ;
 12                   12                   13                              5280              10             100               0                 Open   ;
 21                   21                   22                              5280              10             100               0                 Open   ;
 22                   22                   23                              5280              12             100               0                 Open   ;
 31                   31                   32                              5280               6             100               0                 Open   ;
 110                  2                    12                               200              18             100               0                 Open   ;
 111                  11                   21                              5280              10             100               0                 Open   ;
 112                  12                   22                              5280              12             100               0                 Open   ;
 113                  13                   23                              5280               8             100               0                 Open   ;
 121                  21                   31                              5280               8             100               0                 Open   ;
 122                  22                   32                              5280               6             100               0                 Open   ;

[PUMPS]
;ID                   Node1                Node2                Properties          
 9                    9                    10                   HEAD     1                      ;

[VALVES]
;ID                   Node1                Node2                            Diameter Type              Setting           Minor Loss

[TAGS]
;type      name       tag       

[DEMANDS]
;ID        Demand     Pattern   
10         0.0        P_10      
11         150.0      P_11      
12         150.0      P_12      
13         100.0      P_13      
21         150.0      P_21      
22         200.0      P_22      
23         150.0      P_23      
31         100.0      P_31      
32         100.0      P_32      

[STATUS]
;ID        Setting   
[PATTERNS]
;ID        Multipliers

1 1.000000 1.200000 1.400000 1.600000 1.400000 1.200000
1 1.000000 0.800000 0.600000 0.400000 0.600000 0.800000

P_10 0.543431 0.524714 0.427655 0.384566 0.357928 0.367113
P_10 0.331301 0.380728 0.387561 0.478401 0.585143 0.638750
P_10 0.704163 0.789147 0.863823 1.028263 1.170470 1.176261
P_10 1.153330 1.299216 1.413716 1.355305 1.259285 1.296368
P_10 1.178295 1.101569 1.018166 1.002676 0.991958 0.913463
P_10 0.907569 0.934127 0.803815 0.847110 0.871221 0.924170
P_10 0.970522 1.041926 0.973639 1.046827 1.122134 1.106063
P_10 1.115053 0.995057 1.000277 0.910760 0.762812 0.719390
P_10 0.659460 0.568673 0.457708 0.431158 0.380813 0.398386
P_10 0.391697 0.406912 0.415903 0.511540 0.562305 0.657362
P_10 0.780614 0.850893 0.878739 1.050421 1.177063 1.219380
P_10 1.289941 1.124207 1.151437 1.236426 1.234223 1.137498
P_10 1.056848 1.169484 1.108473 0.899881 0.942718 0.902702
P_10 0.886549 0.914266 0.907876 0.971428 0.921181 0.922796
P_10 1.016821 1.068803 1.024233 1.105081 1.149955 1.234818
P_10 1.045633 1.022163 0.896315 0.846513 0.834900 0.711992
P_10 0.608499 0.527783 0.467201 0.414829 0.355077 0.380968
P_10 0.360029 0.428896 0.471861 0.570682 0.573689 0.633741
P_10 0.804054 0.830312 0.885513 1.090249 1.106954 1.139033
P_10 1.109459 1.204725 1.218872 1.275547 1.330358 1.122851
P_10 1.099003 1.169809 1.060521 0.995315 1.041107 1.025125
P_10 1.045035 0.951592 0.964100 0.942561 0.971533 1.058583
P_10 0.978370 0.974899 1.073692 0.970695 1.022229 1.015403
P_10 1.058360 1.069439 0.987085 0.943191 0.859698 0.712004
P_10 0.624218 0.555174 0.498484 0.391855 0.385966 0.357561
P_10 0.358820 0.419175 0.441113 0.514666 0.540198 0.654238
P_10 0.785463 0.824207 1.000000 1.028223 1.059795 1.089199
P_10 1.205266 1.204021 1.146003 1.128752 1.243171 1.263740
P_10 1.130293 1.050871 1.039652 1.005778 0.932289 0.931997
P_10 0.966376 0.989488 0.955235 1.041615 1.030100 1.009869
P_10 1.096775 1.125888 1.213084 1.114927 1.025998 1.043637
P_10 0.978024 1.048463 0.925643 0.956337 0.763557 0.754467
P_10 0.713925 0.550771 0.491299 0.462267 0.451720 0.385268
P_10 0.398139 0.441855 0.477110 0.585027 0.706677 0.717830
P_10 0.832924 0.990666 1.106174 1.305895 1.385453 1.471361
P_10 1.449731 1.477453 1.432616 1.356726 1.343346 1.326998
P_10 1.184388 1.183963 1.090205 1.055566 1.113129 1.093738
P_10 0.956698 1.060207 1.028323 1.040417 0.988702 0.989470
P_10 0.997651 1.049602 1.049022 1.081881 1.010427 1.028827
P_10 1.029279 0.987083 0.966951 0.832787 0.735474 0.764311
P_10 0.639543 0.607916 0.568289 0.491747 0.479028 0.418082
P_10 0.436504 0.395514 0.436937 0.456153 0.503557 0.500503
P_10 0.635812 0.703743 0.727833 0.845722 0.950316 1.045994
P_10 1.094170 1.149810 1.263448 1.083439 1.162622 1.132994
P_10 1.128884 1.110105 1.120557 1.047215 1.050449 1.028307
P_10 1.026194 1.013371 1.021071 1.062830 1.034136 1.082351
P_10 1.081212 1.123540 1.091110 0.989524 0.904109 0.995071
P_10 0.896344 0.887948 0.753658 0.777650 0.720991 0.723010
P_10 0.593155 0.537373 0.508835 0.478053 0.396028 0.399187
P_10 0.432600 0.388150 0.398784 0.410839 0.421182 0.445864
P_10 0.486479 0.602693 0.601672 0.692249 0.739741 0.801393
P_10 0.864646 0.864110 1.025701 1.091972 1.135756 1.062871
P_10 1.033313 1.035104 1.051148 0.961922 1.040845 0.928677
P_10 0.949397 0.925520 0.888522 0.918825 0.925986 0.960632
P_10 0.989683 0.973238 1.006449 1.027735 1.062753 0.986820
P_10 1.013816 0.960977 0.860952 0.735820 0.806555 0.665316
P_10 0.620852 0.537797 0.453237 0.372870 0.357344 0.356393
P_10 0.326774 0.376208 0.425115 0.472031 0.569457 0.668215
P_10 0.663627 0.804210 0.928680 1.082708 1.021411 1.128867
P_10 1.355697 1.267224 1.286342 1.432672 1.278523 1.253290
P_10 1.243125 1.212853 1.103424 0.970550 1.028620 1.069186
P_10 0.947584 0.833384 0.797477 0.871702 0.908233 0.932308
P_10 0.952982 1.069650 1.065448 1.082490 1.080279 1.103050
P_10 0.996049 1.001276 0.970367 0.912260 0.807427 0.755664
P_10 0.623170 0.570557 0.490645 0.444560 0.395146 0.359671
P_10 0.383999 0.427782 0.465072 0.492792 0.574635 0.640614
P_10 0.691219 0.851268 0.967718 0.996719 1.123273 1.155417
P_10 1.131161 1.234734 1.293593 1.300980 1.122424 1.235930
P_10 1.273250 1.074120 1.104995 1.069393 1.014782 0.967858
P_10 0.871664 0.877615 0.926086 0.850364 0.946384 0.957033
P_10 1.034520 0.973512 1.004896 1.188072 1.118869 1.080922
P_10 1.082838 1.108869 0.885450 0.873008 0.749604 0.690370
P_10 0.617162 0.506686 0.487706 0.389124 0.354368 0.364277
P_10 0.374334 0.419286 0.450029 0.549897 0.602504 0.717300
P_10 0.747226 0.955763 0.925360 1.044462 1.158579 1.087040
P_10 1.273851 1.170826 1.246516 1.167431 1.279572 1.153685
P_10 1.011525 1.200954 1.153338 1.099914 1.028416 1.003660
P_10 1.021877 0.900852 0.953557 0.966045 0.933692 1.049364
P_10 0.885717 1.079102 1.097684 1.075685 1.107161 1.114926
P_10 1.012196 1.087606 0.921015 0.855590 0.844255 0.762377
P_10 0.650249 0.566147 0.465665 0.414793 0.368883 0.362629
P_10 0.327933 0.434705 0.398471 0.492506 0.557831 0.696972
P_10 0.763278 0.870192 0.922899 1.022672 1.166743 1.102528
P_10 1.239890 1.219760 1.214802 1.256899 1.193193 1.106742
P_10 1.178707 1.040980 1.049347 0.968699 0.943520 0.948542
P_10 0.975082 0.977636 1.029310 0.929442 1.011835 1.024491
P_10 1.045151 1.142738 1.151351 1.165289 1.083681 1.027059
P_10 1.078494 1.001544 0.998210 0.896051 0.774451 0.768634
P_10 0.627322 0.549346 0.529376 0.437501 0.407142 0.400688
P_10 0.451936 0.440234 0.507840 0.598658 0.681493 0.754738
P_10 0.965833 0.982238 1.145851 1.264851 1.263370 1.402568
P_10 1.309705 1.410337 1.504579 1.331936 1.274279 1.401104
P_10 1.232798 1.293406 1.197804 1.175184 0.970012 1.109862
P_10 1.045168 1.015344 1.041112 1.143158 1.094543 1.072805
P_10 1.075685 1.051671 1.118519 1.092291 0.990253 1.028175
P_10 1.060186 0.958255 0.912314 0.908583 0.858799 0.750982
P_10 0.719249 0.671107 0.562468 0.493885 0.463622 0.456529
P_10 0.440595 0.404757 0.438536 0.456465 0.520713 0.587773
P_10 0.679918 0.652207 0.916863 0.871257 0.993246 0.973790
P_10 1.066881 1.140497 1.232743 1.071553 1.157886 1.312160
P_10 1.207318 1.152024 1.148693 1.129583 1.032760 1.087242
P_10 1.087898 1.105288 0.956739 1.106216 1.037566 0.965419
P_10 1.038353 1.019069 0.978038 1.039821 1.011959 0.908278
P_10 0.966664 0.749280 0.814148 0.713924 0.713175 0.627796
P_10 0.609741 0.586918 0.540477 0.512939 0.485822 0.432270
P_10 0.413844 0.359099 0.411798 0.426767 0.434795 0.457895
P_10 0.528094 0.518512 0.641920 0.658618 0.791189 0.837671
P_10 0.918635 0.958284 0.992897 1.055316 1.104990 1.111921
P_10 1.161591 1.090302 1.072624 1.024367 1.043211 0.963948
P_10 1.005465 0.826489 0.872405 0.919907 0.971495 0.943164
P_10 1.001685 1.049891 1.088770 0.978781 1.021288 0.943995
P_10 0.900945 0.966897 0.903695 0.854079 0.748463 0.720396
P_10 0.634891 0.534965 0.451179 0.425123 0.381943 0.380361
P_10 0.332976 0.382103 0.426075 0.481127 0.593525 0.617880
P_10 0.766460 0.885445 0.970558 1.087573 1.082343 1.215893
P_10 1.253835 1.360885 1.394701 1.316563 1.414803 1.140503
P_10 1.302432 1.068711 1.074585 1.029836 1.044594 0.987314
P_10 0.963461 0.924776 0.869595 0.870634 0.917272 0.992646
P_10 1.008749 1.035344 1.134083 1.020954 1.074952 1.061125
P_10 1.077801 0.977101 0.979045 0.921536 0.815868 0.636181
P_10 0.609847 0.591646 0.514583 0.452832 0.391168 0.422558
P_10 0.390302 0.422700 0.429225 0.563520 0.576336 0.708612
P_10 0.765331 0.843780 0.827728 1.055546 1.141591 1.217652
P_10 1.249576 1.268135 1.228683 1.322123 1.232180 1.242597
P_10 1.152555 1.117970 1.120690 0.955344 1.001572 0.987711
P_10 0.887297 0.922016 0.872961 0.931033 0.935990 0.907545
P_10 0.955693 1.016463 1.142768 1.217048 1.119224 1.158402
P_10 1.039573 1.054713 1.002571 0.928358 0.780479 0.720168
P_10 0.647000 0.526911 0.445936 0.437135 0.346136 0.371224
P_10 0.368385 0.395035 0.474450 0.567327 0.576206 0.690515
P_10 0.763932 0.894097 1.013794 1.069770 1.096058 1.137742
P_10 1.352310 1.382731 1.262382 1.213017 1.346641 1.372362
P_10 1.249080 1.102242 1.122032 1.065367 1.103844 1.052057
P_10 1.000772 0.955014 1.004215 0.953774 0.978269 0.975801
P_10 1.045203 1.031268 0.968174 1.030260 1.000301 1.168771
P_10 1.122939 1.046052 1.020437 0.885623 0.834964 0.701197
P_10 0.618922 0.492706 0.473348 0.447118 0.377833 0.379464
P_10 0.372494 0.412457 0.494671 0.480434 0.648013 0.652385
P_10 0.847247 0.945441 0.996993 1.018844 1.152707 1.184551
P_10 1.297764 1.311013 1.199639 1.180735 1.244595 1.141711
P_10 1.252199 1.082110 1.017519 1.100822 1.001859 0.975648
P_10 0.992457 0.976410 0.973302 1.013407 1.072218 1.058484
P_10 0.971676 1.114305 1.129582 1.097254 1.133104 1.117685
P_10 1.041362 1.055107 0.992165 0.920063 0.901904 0.835880
P_10 0.673703 0.562358 0.505443 0.480789 0.448295 0.398468
P_10 0.397812 0.430695 0.492347 0.589686 0.736813 0.823542
P_10 0.796105 1.031760 1.206104 1.151599 1.164746 1.357994
P_10 1.459611 1.557337 1.442318 1.418150 1.344792 1.361427
P_10 1.292071 1.135760 1.165100 1.104143 1.013504 0.976441
P_10 1.093531 1.157302 1.118889 1.036746 1.024087 1.116615
P_10 1.134734 1.105741 1.064904 1.138857 0.985771 1.014064
P_10 0.976644 0.988164 0.918820 0.838461 0.757504 0.706242
P_10 0.706322 0.618708 0.592078 0.516540 0.512211 0.430466
P_10 0.469994 0.426716 0.424912 0.486403 0.530977 0.582695
P_10 0.606486 0.741939 0.799909 0.834761 1.056430 1.048047
P_10 1.049804 1.168965 1.087775 1.291515 1.190013 1.176110
P_10 1.216101 1.185029 1.171321 1.111118 1.141438 1.105290
P_10 1.002727 1.042864 1.052402 1.111201 1.215109 1.168473
P_10 1.218119 1.126891 1.105421 0.939967 0.997756 0.924723
P_10 0.892673 0.876690 0.863685 0.710805 0.677709 0.658778
P_10 0.580275 0.576792 0.500962 0.507335 0.476824 0.455516
P_10 0.417621 0.428485 0.427839 0.398854 0.436187 0.481282
P_10 0.528090 0.536337 0.673286 0.730790 0.797153 0.826103
P_10 0.880047 1.019515 0.982070 1.042478 1.078859 1.078243
P_10 1.120942 1.103257 0.965297 1.123779 1.070103 0.979850
P_10 0.998171 0.963321 0.969038 1.007095 0.930335 0.925242
P_10 1.032168 0.969671 0.995578 1.014794 0.992767 0.969640
P_10 0.921518 0.929332 0.850031 0.857215 0.777239 0.661287
P_10 0.574912 0.496623 0.457054 0.466064 0.410428 0.381423
P_10 0.388450 0.400290 0.409529 0.501020 0.555323 0.597075
P_10 0.819026 0.811829 0.986125 1.129163 1.253060 1.378593
P_10 1.225437 1.377087 1.321592 1.289772 1.388559 1.354050
P_10 1.189929 1.177213 1.164017 1.112825 1.042290 0.989908
P_10 0.920295 0.841757 0.872641 0.957325 0.894873 0.963439
P_10 1.054055 1.039819 1.061468 1.003586 1.191730 1.031630
P_10 1.084255 1.005385 0.979277 0.895976 0.883258 0.709446
P_10 0.651457 0.571109 0.506618 0.437823 0.400298 0.383566
P_10 0.412575 0.432254 0.453329 0.537056 0.613095 0.738769
P_10 0.760993 0.810007 0.979243 1.044713 1.212286 1.190438
P_10 1.318200 1.307754 1.294526 1.222838 1.200875 1.182207
P_10 1.289326 1.192303 1.086364 1.050870 1.022906 1.028110
P_10 1.001557 0.948443 0.883976 1.006625 1.006013 1.096700
P_10 1.012682 1.132693 1.032735 1.161095 1.196538 1.073441
P_10 1.169417 1.141416 0.970437 0.892900 0.783431 0.690046
P_10 0.664272 0.569348 0.510630 0.453221 0.369132 0.372824
P_10 0.397399 0.413744 0.481731 0.485218 0.557289 0.765389
P_10 0.836042 0.907993 0.900861 1.047099 1.155535 1.271684
P_10 1.258976 1.301148 1.331634 1.279663 1.246683 1.107595
P_10 1.249040 1.223876 1.171476 1.068894 1.069590 1.111434
P_10 1.047975 0.988481 1.009810 0.856860 0.996847 1.050807
P_10 1.044845 1.011967 1.016865 1.049476 1.119446 1.060962
P_10 1.049936 1.164825 0.898839 0.916704 0.794432 0.765391
P_10 0.621625 0.548151 0.545095 0.453714 0.391887 0.369282
P_10 0.368437 0.407361 0.459789 0.535027 0.655829 0.741792
P_10 0.724713 0.889616 0.982890 1.083335 1.119067 1.200131
P_10 1.244105 1.354626 1.291606 1.328128 1.229645 1.164313
P_10 1.184865 1.117565 1.189466 0.964206 1.084612 1.048472
P_10 0.932867 1.023059 1.100471 1.094265 1.120964 1.095365
P_10 1.131673 1.088135 1.138754 1.257217 1.097069 1.105113
P_10 1.142024 1.130270 1.049689 0.961391 0.857993 0.793804
P_10 0.740101 0.622729 0.522631 0.501395 0.409100 0.416357
P_10 0.442524 0.469194 0.520992 0.590798 0.669833 0.830021
P_10 0.963037 1.058254 1.031789 1.180422 1.353354 1.468044
P_10 1.459591 1.539205 1.539250 1.383467 1.439232 1.347173
P_10 1.382374 1.283728 1.243735 1.135007 1.116016 1.019517
P_10 1.064455 1.112958 1.088112 1.044028 1.104033 1.076746
P_10 1.075660 1.168909 1.139450 1.049065 1.176754 1.080578
P_10 0.984914 0.918702 1.006839 0.897444 0.862780 0.824161
P_10 0.700488 0.688847 0.611613 0.564559 0.480757 0.493921
P_10 0.389253 0.435884 0.419772 0.459463 0.487645 0.589039
P_10 0.650175 0.745570 0.786550 0.917887 0.976142 1.201061
P_10 1.121787 1.181130 1.248210 1.154854 1.219329 1.306369
P_10 1.176481 1.125543 1.143127 1.124429 1.092521 1.225949
P_10 1.189829 1.029182 1.203184 1.059762 1.101494 1.066982
P_10 1.156441 1.155250 1.115962 1.016821 1.084957 0.930110
P_10 0.929308 0.849180 0.828999 0.729197 0.722344 0.686696
P_10 0.609505 0.609428 0.560719 0.521649 0.503078 0.452292
P_10 0.447551 0.412866 0.411720 0.448962 0.448503 0.439624
P_10 0.509317 0.552805 0.649998 0.721086 0.748672 0.818902
P_10 0.864580 0.934994 1.110408 1.136950 1.070199 1.191524
P_10 1.196312 1.185264 1.071183 1.076392 1.066101 1.048378
P_10 0.971286 0.978715 0.923247 0.907441 0.988458 0.963817
P_10 0.887276 1.005123 1.028113 1.045648 0.975843 0.997003
P_10 0.947984 0.986609 0.939886 0.748644 0.728750 0.708571
P_10 0.564258 0.528063 0.469569 0.443785 0.392150 0.364334
P_10 0.400867 0.408109 0.397195 0.504993 0.564948 0.677315
P_10 0.712381 0.998027 0.996056 0.988295 1.190765 1.248242
P_10 1.360640 1.488539 1.257685 1.384261 1.324294 1.368452
P_10 1.244808 1.328898 1.106501 1.187170 1.052763 0.971795
P_10 0.974021 0.872684 0.938032 0.933664 0.908025 0.959564
P_10 1.012887 1.126835 1.113896 1.179102 1.133411 1.102943
P_10 1.218750 1.146749 0.899896 1.005111 0.904177 0.761575
P_10 0.660383 0.565032 0.500881 0.481696 0.414210 0.400247
P_10 0.386668 0.404473 0.493456 0.505543 0.622243 0.677722
P_10 0.765539 0.881373 0.966345 1.049379 1.141189 1.307631
P_10 1.312969 1.234441 1.289360 1.329154 1.327616 1.401241
P_10 1.121539 1.145554 1.219834 1.007013 1.056836 0.973044
P_10 0.922287 0.892083 0.965062 1.018927 0.993533 1.053688
P_10 1.115152 1.220343 1.116843 1.141696 1.256997 1.261105
P_10 1.117681 1.100195 0.942933 0.963288 0.865609 0.763426
P_10 0.627304 0.585201 0.463380 0.447270 0.431980 0.394541
P_10 0.399400 0.396414 0.465652 0.521832 0.673445 0.764592
P_10 0.795512 0.962802 1.086879 1.034579 1.181765 1.158409
P_10 1.332129 1.365885 1.252993 1.334458 1.277192 1.262264
P_10 1.214133 1.236077 1.228784 1.171512 1.081401 0.933217
P_10 1.024658 0.926250 0.969506 1.049414 1.131585 1.003514
P_10 1.107388 1.041957 1.101584 1.098528 1.017062 1.109666
P_10 1.044118 1.013804 0.925591 0.949369 0.796181 0.808332
P_10 0.595656 0.601379 0.494288 0.459043 0.390710 0.399746
P_10 0.389676 0.428178 0.462830 0.546769 0.664334 0.775860
P_10 0.848662 0.812623 1.083840 1.078108 1.185336 1.178831
P_10 1.232031 1.356210 1.156980 1.293907 1.259522 1.243697
P_10 1.120642 1.243911 1.146876 1.126668 1.107942 1.092733
P_10 1.004509 1.074772 1.050735 1.031373 0.967759 1.055874
P_10 1.141498 1.073495 1.169923 1.232161 1.209054 1.104375
P_10 1.131527 1.129950 1.050385 0.911320 0.922119 0.780800
P_10 0.634277 0.624836 0.569135 0.472027 0.457902 0.435649
P_10 0.396011 0.446554 0.524243 0.605962 0.698012 0.770705
P_10 0.902955 1.058503 1.206213 1.245139 1.309609 1.536216
P_10 1.473101 1.524941 1.477159 1.359253 1.442722 1.521552
P_10 1.289797 1.359477 1.291781 1.127239 1.193496 1.054210
P_10 1.106058 1.075923 1.048845 1.113481 1.099636 1.163783
P_10 1.035385 1.181514 1.070741 1.179600 1.062665 1.112910
P_10 1.087690 0.899439 0.984295 0.929212 0.816583 0.836732
P_10 0.759115 0.719065 0.601774 0.570138 0.461364 0.484491
P_10 0.489952 0.471548 0.464617 0.500760 0.490961 0.611676
P_10 0.651557 0.734948 0.895337 0.868308 0.948634 1.084571
P_10 1.123787 1.225840 1.274256 1.260646 1.308686 1.319595
P_10 1.296723 1.223428 1.177958 1.170009 1.035266 1.145087
P_10 1.074845 1.187587 1.146880 1.086479 1.120993 1.105293
P_10 1.127355 1.107046 1.068336 1.021669 0.999434 0.951584
P_10 0.955143 0.864364 0.833519 0.799041 0.805210 0.691774
P_10 0.688878 0.568241 0.519483 0.487544 0.500733 0.454121
P_10 0.430895 0.415231 0.422602 0.454438 0.442355 0.518677
P_10 0.561990 0.606427 0.666660 0.732819 0.792520 0.847674
P_10 0.982532 0.993709 1.083195 1.152634 1.163149 1.184488
P_10 1.133512 1.049939 1.024396 1.012628 1.091802 1.003060
P_10 0.947203 1.013991 0.946791 0.979237 1.001372 0.927952
P_10 1.105528 1.022245 1.157285 1.039397 1.094002 1.064319
P_10 0.976104 0.967197 0.912062 0.877595 0.871751 0.646454
P_10 0.624300 0.541833 0.488329 0.442258 0.435465 0.384875
P_10 0.404725 0.447861 0.472854 0.459949 0.586352 0.725839
P_10 0.891069 0.976506 0.970064 1.050274 1.238806 1.208543
P_10 1.368296 1.425537 1.424195 1.529038 1.402274 1.333333
P_10 1.371124 1.277712 1.208925 1.191407 1.108318 0.923551
P_10 1.029167 0.889069 0.899136 0.941538 0.947041 1.023281
P_10 1.134221 1.030931 1.099890 1.088009 1.137906 1.197901
P_10 1.064039 1.159480 1.123305 0.941738 0.913602 0.800833
P_10 0.669770 0.636591 0.558161 0.446071 0.405274 0.409145
P_10 0.389896 0.424143 0.485892 0.544471 0.581531 0.731582
P_10 0.853469 1.003395 1.047996 1.075395 1.184917 1.173656
P_10 1.270865 1.304214 1.376465 1.209308 1.362121 1.212509
P_10 1.306820 1.178113 1.208895 1.162249 1.061400 1.033887
P_10 0.948746 0.954011 0.968364 1.030672 1.065597 0.982427
P_10 1.068213 1.113155 1.153470 1.216528 1.220106 1.093125
P_10 1.112520 1.183838 1.056832 1.011107 0.893076 0.770150
P_10 0.700796 0.610741 0.528786 0.417362 0.406999 0.362393
P_10 0.386468 0.415128 0.466577 0.593472 0.603225 0.695537
P_10 0.779801 0.962958 1.128101 1.039261 1.173238 1.352948
P_10 1.317849 1.242329 1.390077 1.307748 1.344337 1.260079
P_10 1.256643 1.283813 1.151108 1.174532 1.139513 1.141054
P_10 1.057832 0.976744 1.115127 1.050167 1.025237 1.111322
P_10 1.067506 1.122719 1.212525 1.149852 1.133113 1.122053
P_10 1.006436 1.111329 0.919663 0.942178 0.901786 0.679633
P_10 0.638345 0.618153 0.532801 0.455276 0.446319 0.369999
P_10 0.445520 0.451769 0.479664 0.545750 0.642430 0.768053
P_10 0.879975 0.919751 1.027642 1.044407 1.274148 1.312086
P_10 1.316909 1.409296 1.075797 1.215533 1.365892 1.170778
P_10 1.087663 1.253177 1.131556 1.204795 0.974530 1.042010
P_10 1.115664 1.053124 1.040445 1.021797 1.068607 1.159846
P_10 1.050024 1.143549 1.183788 1.138158 1.225534 1.222938
P_10 1.125011 1.054029 1.003988 1.023141 0.889433 0.823071
P_10 0.774563 0.593672 0.558743 0.548735 0.477640 0.482943
P_10 0.425010 0.456498 0.549281 0.584292 0.747651 0.890055
P_10 0.951717 1.090193 1.209672 1.412182 1.358452 1.537465
P_10 1.488691 1.562362 1.560144 1.438507 1.371203 1.445545
P_10 1.401691 1.239845 1.277102 1.139018 1.115804 1.184453
P_10 1.111800 1.063166 1.188350 1.175404 1.097319 1.166744
P_10 1.218940 1.119821 1.163494 1.193721 1.079527 1.147441
P_10 1.063074 1.074524 1.002611 0.912847 0.849478 0.876371
P_10 0.789792 0.686064 0.596011 0.596335 0.505632 0.482851
P_10 0.481375 0.454088 0.461661 0.519127 0.525525 0.609837
P_10 0.695677 0.753841 0.835844 0.960088 1.032618 1.038630
P_10 1.211415 1.282535 1.284589 1.291243 1.312233 1.345144
P_10 1.237191 1.249440 1.163030 1.148377 1.173618 1.208740
P_10 1.179388 1.088196 1.146923 1.056799 1.071446 1.119955
P_10 1.114841 1.147590 1.132226 1.100436 1.086990 1.064962
P_10 0.983036 0.931944 0.804823 0.753918 0.746172 0.695423
P_10 0.649811 0.565169 0.574197 0.557643 0.467403 0.494969
P_10 0.449358 0.406944 0.434167 0.457174 0.456057 0.454599
P_10 0.521448 0.633661 0.635169 0.739000 0.842826 0.885846
P_10 1.025812 1.062193 1.126791 1.120182 1.203198 1.205079
P_10 1.333897 1.083546 1.018052 1.127851 1.236120 1.064280
P_10 1.039332 1.009207 1.089691 0.892947 1.069975 0.987297
P_10 0.986701 1.063582 1.172490 1.119551 1.092169 1.022067
P_10 1.008657 1.082595 0.971098 0.938573 0.898431 0.719142
P_10 0.628665 0.539444 0.493342 0.465791 0.392490 0.410053
P_10 0.386357 0.463376 0.469610 0.513252 0.624726 0.722567
P_10 0.830757 1.036271 0.977146 0.954297 1.252126 1.326374
P_10 1.453340 1.425195 1.373556 1.374928 1.439921 1.488717
P_10 1.266796 1.277219 1.237935 1.187271 1.070161 1.101437
P_10 1.001124 1.004382 1.002236 1.000387 1.003594 1.041872
P_10 1.061496 1.170925 1.126037 1.142116 1.252836 1.161799
P_10 1.187917 1.117764 1.087784 1.005524 0.873917 0.808269
P_10 0.739248 0.612713 0.529575 0.466636 0.439213 0.410105
P_10 0.404694 0.459277 0.471350 0.561705 0.636805 0.735044
P_10 0.796212 0.939367 1.000031 1.111381 1.230728 1.337775
P_10 1.316233 1.369021 1.340629 1.363571 1.411674 1.334054
P_10 1.358957 1.285339 1.092894 1.155216 1.029167 1.095606
P_10 1.149450 1.101821 1.009307 1.056423 1.017038 1.153079
P_10 1.094285 1.094664 1.280233 1.197485 1.230098 1.187704
P_10 1.133850 1.138809 1.086830 1.016864 0.888880 0.859150
P_10 0.664926 0.591759 0.499729 0.427638 0.424594 0.459409
P_10 0.416216 0.426107 0.476211 0.569558 0.717075 0.761565
P_10 0.820249 0.873100 1.018383 1.158377 1.184970 1.376663
P_10 1.344436 1.304630 1.404343 1.350108 1.403995 1.280920
P_10 1.238537 1.204050 1.252642 1.138925 1.115085 1.056107
P_10 1.146676 0.949530 1.122008 1.020506 1.157298 1.182089
P_10 1.076420 1.123552 1.118857 1.128924 1.214626 1.070353
P_10 1.155378 1.175524 0.990873 1.055960 0.834611 0.762162
P_10 0.729300 0.638976 0.561518 0.463770 0.397036 0.394133
P_10 0.400436 0.459667 0.475407 0.586412 0.654656 0.707835
P_10 0.861638 0.967451 1.045069 1.269703 1.311677 1.284329
P_10 1.308891 1.335356 1.385681 1.358748 1.396459 1.169323
P_10 1.234295 1.276372 1.195826 1.166048 1.124703 1.093897
P_10 1.046577 1.078616 1.108645 1.101630 1.232926 1.004654
P_10 1.097174 1.237847 1.158231 1.331500 1.179798 1.207653
P_10 1.187507 1.090481 1.047426 1.084672 0.941786 0.800807
P_10 0.738235 0.624147 0.583977 0.511645 0.495673 0.443448
P_10 0.432166 0.494633 0.553182 0.633124 0.697152 0.899835
P_10 0.968682 1.201611 1.210331 1.422167 1.522880 1.595505
P_10 1.576275 1.472402 1.672117 1.524438 1.464583 1.421332
P_10 1.269616 1.375658 1.287071 1.259233 1.251134 1.143973
P_10 1.195639 1.207772 1.205193 1.189926 1.109219 1.191507
P_10 1.149527 1.158591 1.183804 1.191323 1.145094 1.173407
P_10 0.949223 1.089621 0.889593 0.804794 0.911844 0.853590
P_10 0.832369 0.744981 0.624819 0.539748 0.527257 0.508575
P_10 0.462304 0.438334 0.474108 0.522981 0.534297 0.587621
P_10 0.660132 0.729443 0.894487 0.987064 0.972172 1.203252
P_10 1.198279 1.195722 1.303348 1.157733 1.404810 1.380259
P_10 1.390544 1.238935 1.239546 1.206820 1.227927 1.163066
P_10 1.122452 1.200280 1.265900 1.249357 1.150339 1.215235
P_10 1.129707 1.141209 1.109039 1.086461 1.068459 1.077698
P_10 0.977966 0.919036 0.834346 0.844659 0.854761 0.741900
P_10 0.749421 0.628511 0.621806 0.544472 0.525491 0.467600
P_10 0.459974 0.436165 0.419102 0.431358 0.487938 0.497190
P_10 0.530273 0.614796 0.635911 0.734339 0.814687 0.910519
P_10 0.951638 1.064975 1.249783 1.137841 1.140671 1.254647
P_10 1.113836 1.276689 1.116438 1.101438 1.102248 1.083828
P_10 1.004345 1.055144 0.989149 0.966380 1.122514 0.978440
P_10 1.081778 1.046200 1.005042 1.151324 1.062373 1.067720
P_10 1.103104 1.054051 0.955354 0.899525 0.762398 0.841447
P_10 0.690635 0.548396 0.560630 0.441571 0.435278 0.354468
P_10 0.427092 0.432580 0.517336 0.528247 0.663636 0.735689
P_10 0.794398 0.950551 1.104149 1.086368 1.375156 1.258811
P_10 1.472299 1.387119 1.407404 1.441189 1.475262 1.347909
P_10 1.442831 1.349192 1.327136 1.146281 1.119731 1.065306
P_10 0.955422 1.007604 1.005881 1.128129 0.992747 1.026814
P_10 1.098629 1.121147 1.187490 1.249414 1.278423 1.138665
P_10 1.148329 1.118227 1.063704 1.004166 0.916896 0.773837
P_10 0.730534 0.621041 0.581801 0.507828 0.453530 0.425999
P_10 0.432739 0.414982 0.485460 0.562705 0.615102 0.787477
P_10 0.835812 0.897351 0.974976 1.192515 1.050707 1.350443
P_10 1.378706 1.364618 1.311614 1.557874 1.328520 1.319338
P_10 1.353671 1.137899 1.221175 1.279202 1.128430 0.961082
P_10 1.059319 1.015892 1.067109 1.015924 1.079373 1.079536
P_10 1.130451 1.242514 1.313229 1.166840 1.202437 1.281683
P_10 1.240484 1.130805 1.098186 1.003513 0.856048 0.828777
P_10 0.691219 0.582805 0.510963 0.431858 0.428237 0.414991
P_10 0.400594 0.486868 0.525112 0.601921 0.733512 0.670894
P_10 0.859927 1.078999 1.056288 1.047239 1.298426 1.329673
P_10 1.379096 1.362330 1.383967 1.400448 1.455341 1.480981
P_10 1.363447 1.284046 1.240063 1.209934 1.152210 1.135457
P_10 1.187419 1.151252 1.102875 1.083205 1.105505 1.118812
P_10 1.113503 1.215925 1.183427 1.121174 1.109856 1.222258
P_10 1.261774 1.208685 1.134928 1.017199 0.905212 0.828528
P_10 0.785305 0.604433 0.544372 0.488897 0.440038 0.402105
P_10 0.380341 0.425079 0.519816 0.605899 0.675445 0.759808
P_10 0.824483 1.036363 1.110088 1.149110 1.276918 1.309564
P_10 1.400431 1.468053 1.551974 1.340647 1.309693 1.264427
P_10 1.245419 1.199568 1.191823 1.209068 1.137429 1.119484
P_10 1.084629 0.994059 1.087541 1.150416 1.092569 1.070917
P_10 1.338958 1.250462 1.089937 1.269372 1.209093 1.335975
P_10 1.257100 1.216253 1.115216 1.012185 0.932894 0.809688
P_10 0.764404 0.638278 0.555877 0.486594 0.478270 0.466652
P_10 0.428776 0.448524 0.554185 0.613914 0.762939 0.904266
P_10 0.975775 1.080105 1.319849 1.398127 1.412214 1.430270
P_10 1.615613 1.740393 1.569407 1.618045 1.590052 1.420146
P_10 1.447515 1.344678 1.277478 1.253720 1.194359 1.257508
P_10 1.185740 1.130219 1.078632 1.265121 1.148776 1.104085
P_10 1.183861 1.195772 1.119144 1.217536 1.220450 1.177531
P_10 1.238504 1.036080 0.957927 1.031277 0.813215 0.837286
P_10 0.846384 0.746044 0.614907 0.621340 0.544723 0.525802