; Filename: networks/Net1.inp
; WNTR: 0.1.6
; Created: 2019-04-09 13:10:45
[TITLE]
EPANET Example Network 1
A simple example of modeling chlorine decay. Both bulk and
wall reactions are included.

[JUNCTIONS]
;ID                      Elevation       Demand Pattern                 
 10                               710               0                            ;
 11                               710               0                            ;
 12                               700               0                            ;
 13                               695               0                            ;
 21                               700               0                            ;
 22                               695               0                            ;
 23                               690               0                            ;
 31                               700               0                            ;
 32                               710               0                            ;

[RESERVOIRS]
;ID                                   Head                  Pattern
 9                                800                            ;

[TANKS]
;ID                              Elevation           Init Level            Min Level            Max Level             Diameter           Min Volume Volume Curve        
 2                                850             120             100             150            50.5               0                        ;

[PIPES]
;ID                   Node1                Node2                              Length             Diameter            Roughness           Minor Loss               Status
 10                   10                   11                             10530              18             100               0                 Open   ;
 11                   11                   12                              5280              14             100               0                 Open   ;
 12                   12                   13                              5280              10             100               0                 Open   ;
 21                   21                   22                              5280              10             100               0                 Open   ;
 22                   22                   23                              5280              12             100               0                 Open   ;
 31                   31                   32                              5280               6             100               0                 Open   ;
 110                  2                    12                               200              18             100               0                 Open   ;
 111                  11                   21                              5280              10             100               0                 Open   ;
 112                  12                   22                              5280              12             100               0                 Open   ;
 113                  13                   23                              5280               8             100               0                 Open   ;
 121                  21                   31                              5280               8             100               0                 Open   ;
 122                  22                   32                              5280               6             100               0                 Open   ;

[PUMPS]
;ID                   Node1                Node2                Properties          
 9                    9                    10                   HEAD     1                      ;

[VALVES]
;ID                   Node1                Node2                            Diameter Type              Setting           Minor Loss

[TAGS]
;type      name       tag       

[DEMANDS]
;ID        Demand     Pattern   
10         0.0        P_10      
11         150.0      P_11      
12         150.0      P_12      
13         100.0      P_13      
21         150.0      P_21      
22         200.0      P_22      
23         150.0      P_23      
31         100.0      P_31      
32         100.0      P_32      

[STATUS]
;ID        Setting   
[PATTERNS]
;ID        Multipliers

1 1.000000 1.200000 1.400000 1.600000 1.400000 1.200000
1 1.000000 0.800000 0.600000 0.400000 0.600000 0.800000

P_10 0.498639 0.428439 0.427597 0.350110 0.330837 0.299547
P_10 0.332648 0.324845 0.384868 0.450946 0.522066 0.613202
P_10 0.704044 0.827132 0.983213 0.987991 1.124822 1.241964
P_10 1.251764 1.298486 1.282283 1.376361 1.329341 1.313072
P_10 1.271961 1.295382 1.121927 1.154969 1.041167 0.925818
P_10 0.901744 0.858547 0.899142 0.907513 0.915374 0.968910
P_10 1.003353 1.005133 1.033349 1.008149 1.058745 1.052518
P_10 1.001591 0.979016 0.973241 0.843484 0.732930 0.709239
P_10 0.595507 0.475499 0.431129 0.366604 0.333344 0.301422
P_10 0.343012 0.360713 0.421711 0.535765 0.535400 0.570362
P_10 0.742593 0.793772 0.932608 1.055913 1.108814 1.217636
P_10 1.217860 1.138347 1.208885 1.276907 1.167523 1.332412
P_10 1.237430 1.111092 1.117759 1.008457 0.966131 0.962874
P_10 0.996384 0.941890 0.908127 0.893039 0.841480 1.019786
P_10 1.019455 1.012323 1.097206 1.042216 1.198377 1.150019
P_10 1.013754 0.838818 0.971929 0.861383 0.689285 0.632284
P_10 0.585768 0.466589 0.410571 0.357496 0.358209 0.344654
P_10 0.344560 0.345057 0.460649 0.505525 0.574558 0.649631
P_10 0.732695 0.795775 0.915239 1.004563 1.110752 1.191755
P_10 1.197450 1.221527 1.324275 1.343420 1.272016 1.327162
P_10 1.191369 1.132570 1.172445 0.978932 1.024790 1.084725
P_10 0.992577 0.990390 0.906395 0.955818 0.936923 1.017836
P_10 1.089463 1.007285 1.059995 1.080684 1.027074 1.033797
P_10 1.009276 0.950149 0.904807 0.870511 0.725989 0.716212
P_10 0.554319 0.505857 0.467026 0.379490 0.302814 0.316900
P_10 0.338715 0.342927 0.454290 0.433802 0.561085 0.606787
P_10 0.787731 0.917295 0.968909 1.085178 1.140482 1.131304
P_10 1.172578 1.343987 1.262146 1.267384 1.152645 1.354198
P_10 1.087813 1.214137 0.952805 1.134707 1.053062 0.957738
P_10 0.980921 0.934050 1.024373 0.986724 0.921474 1.029047
P_10 0.935007 1.054369 1.073852 0.955363 1.071478 1.105895
P_10 0.935015 1.028377 0.956706 0.803609 0.769097 0.728264
P_10 0.666798 0.537128 0.498175 0.412776 0.366331 0.358402
P_10 0.393774 0.396311 0.470926 0.547381 0.632521 0.640958
P_10 0.891110 1.051015 1.074587 1.189187 1.199237 1.332189
P_10 1.399650 1.365899 1.421473 1.468095 1.343197 1.356426
P_10 1.337036 1.215169 1.218005 1.080291 1.080572 0.988748
P_10 1.185243 1.088048 0.991767 0.983614 1.113508 1.051663
P_10 1.056021 1.087237 0.980455 1.028356 1.016339 1.033714
P_10 0.957806 0.864711 0.943312 0.874350 0.746209 0.696074
P_10 0.666437 0.596660 0.529231 0.451962 0.464114 0.382234
P_10 0.408427 0.385789 0.377487 0.463433 0.471169 0.564630
P_10 0.571120 0.675687 0.752032 0.829535 0.929038 1.000098
P_10 1.046711 1.171453 1.193517 1.259555 1.217189 1.175271
P_10 1.182440 1.214132 1.179318 1.159670 1.105972 1.062748
P_10 1.050552 1.016888 1.048639 1.082509 1.186561 1.092110
P_10 1.065451 0.986330 1.032682 1.007259 0.955927 0.874741
P_10 0.904923 0.780140 0.764035 0.728473 0.688876 0.638579
P_10 0.609160 0.512990 0.491201 0.488909 0.415504 0.375944
P_10 0.369806 0.375593 0.369839 0.396945 0.414478 0.418178
P_10 0.495365 0.567489 0.608245 0.685679 0.787173 0.783994
P_10 0.894818 0.918120 1.045443 1.052179 0.997514 1.106501
P_10 1.227057 1.097638 1.074927 0.907770 0.992573 0.967414
P_10 0.870652 0.955613 0.938020 0.976111 0.886709 1.013646
P_10 0.892202 1.011408 0.944633 1.054037 0.942468 0.907339
P_10 0.911561 0.903671 0.788429 0.721326 0.741658 0.601785
P_10 0.488132 0.488775 0.397416 0.386780 0.309693 0.304702
P_10 0.324623 0.351863 0.407962 0.433248 0.572570 0.673503
P_10 0.747377 0.879794 0.890664 1.037711 1.183514 1.194113
P_10 1.205292 1.335505 1.287673 1.391838 1.297845 1.298848
P_10 1.362001 1.152150 1.131720 1.091940 1.013823 0.968671
P_10 0.901350 0.936645 0.971224 0.920608 0.968580 0.971750
P_10 0.925483 1.024848 1.119561 1.030124 1.011407 1.034269
P_10 1.100249 0.906429 0.880994 0.776511 0.733984 0.652792
P_10 0.604497 0.549161 0.405132 0.375447 0.356414 0.357703
P_10 0.344824 0.364974 0.376857 0.452626 0.561580 0.609368
P_10 0.727926 0.861609 0.999370 0.998224 1.064248 1.213909
P_10 1.223960 1.324181 1.213932 1.307485 1.169236 1.132306
P_10 1.145696 1.231321 1.110619 1.120973 1.010387 0.896826
P_10 0.836899 0.907054 0.930393 0.944636 0.944101 1.025664
P_10 1.044000 1.017754 1.100306 1.160375 0.980387 1.051842
P_10 0.971517 0.977220 0.928328 0.792992 0.773065 0.627414
P_10 0.549664 0.511511 0.432760 0.376416 0.302898 0.328716
P_10 0.328899 0.371220 0.449241 0.506117 0.602314 0.692372
P_10 0.757601 0.843564 0.934496 1.066633 1.033990 1.137672
P_10 1.363782 1.188305 1.242465 1.195270 1.398836 1.249959
P_10 1.090496 1.268176 1.052192 1.124820 1.008548 1.089075
P_10 0.958977 1.123023 1.058793 0.974103 0.984494 1.009804
P_10 1.026453 1.011196 1.118029 1.174983 1.053745 1.088490
P_10 1.082867 0.948994 0.874986 0.847709 0.827176 0.677393
P_10 0.569500 0.541292 0.411815 0.417084 0.342201 0.327764
P_10 0.341298 0.349288 0.424467 0.468443 0.584388 0.683135
P_10 0.721673 0.852694 1.017384 1.164903 1.106331 1.172209
P_10 1.287816 1.180334 1.262173 1.139304 1.265955 1.197015
P_10 1.079352 1.150768 1.079281 1.078155 1.122834 0.978130
P_10 0.941420 0.956084 0.983875 1.066644 0.990642 0.973264
P_10 1.051948 1.045408 1.155378 1.158568 1.031776 1.061501
P_10 1.021056 1.041826 0.943061 0.879998 0.724867 0.741490
P_10 0.632050 0.540664 0.468809 0.387504 0.390299 0.374420
P_10 0.346764 0.412164 0.478424 0.537718 0.661978 0.754813
P_10 0.940092 1.030966 1.130958 1.254852 1.335361 1.403748
P_10 1.360873 1.474873 1.477289 1.399085 1.452690 1.335370
P_10 1.267154 1.268813 1.149225 1.150605 0.986753 1.103431
P_10 1.047721 1.060706 1.100333 1.047355 0.995811 1.110223
P_10 1.079291 1.016304 1.003698 1.061364 1.092789 1.020639
P_10 0.983674 1.006156 0.899469 0.803806 0.774723 0.737337
P_10 0.717788 0.631304 0.534506 0.534263 0.434957 0.352103
P_10 0.407096 0.427334 0.412074 0.439460 0.506197 0.567418
P_10 0.597062 0.699669 0.846882 0.909795 0.987299 0.933422
P_10 1.108789 1.244919 1.233694 1.278771 1.216507 1.251061
P_10 1.222902 1.138217 1.191341 1.146156 1.133383 1.082198
P_10 1.082664 1.243588 1.110825 1.063882 1.005494 1.035764
P_10 1.048008 1.048546 0.960884 1.035402 0.993399 0.886895
P_10 0.898617 0.810269 0.815135 0.705676 0.662474 0.660802
P_10 0.626022 0.533829 0.503017 0.482108 0.401370 0.409059
P_10 0.389833 0.352478 0.378131 0.391934 0.394671 0.442836
P_10 0.504203 0.610659 0.641786 0.718041 0.761310 0.847081
P_10 0.871584 1.075302 1.149899 1.006752 1.191807 1.145084
P_10 1.119384 1.133444 1.180976 1.106049 0.918502 1.070126
P_10 0.945302 0.876234 0.900970 0.919993 0.996528 0.980548
P_10 0.983538 0.923109 0.971163 0.956171 0.994486 1.029200
P_10 0.978043 0.872864 0.793275 0.729308 0.709796 0.591641
P_10 0.578934 0.489553 0.408321 0.372686 0.320652 0.323129
P_10 0.331111 0.342071 0.419649 0.436903 0.515438 0.620424
P_10 0.766346 0.926266 1.042861 0.958231 1.133126 1.325835
P_10 1.391545 1.328749 1.336050 1.299402 1.406927 1.340887
P_10 1.204719 1.273862 1.153705 1.057899 0.967019 0.971728
P_10 0.920211 0.901403 0.899398 0.883775 0.928274 0.956124
P_10 1.015215 1.022471 1.030872 1.088074 1.067801 1.112828
P_10 1.028743 0.991070 0.918321 0.849669 0.761356 0.761215
P_10 0.621977 0.521996 0.437626 0.408408 0.373609 0.320703
P_10 0.364485 0.331923 0.450743 0.484220 0.588525 0.708397
P_10 0.744445 0.936125 0.918589 1.092135 1.139249 1.184468
P_10 1.230874 1.179026 1.358467 1.335396 1.271793 1.263514
P_10 1.209492 1.118511 1.210958 1.058681 1.086011 1.044466
P_10 0.979300 0.931466 1.017591 0.991294 1.083431 1.017480
P_10 1.089186 1.158614 1.173027 1.158202 1.202546 1.118299
P_10 1.011871 1.047739 0.984260 0.845576 0.732777 0.657653
P_10 0.587337 0.495046 0.411227 0.389949 0.345743 0.324421
P_10 0.348527 0.401206 0.456839 0.525249 0.617109 0.719911
P_10 0.784871 0.899739 0.924758 1.147393 1.271885 1.221377
P_10 1.233186 1.224486 1.357855 1.312381 1.422632 1.325797
P_10 1.296282 1.286061 1.207947 1.173066 1.051388 1.021607
P_10 1.029802 1.034684 1.107495 1.050033 1.010670 1.018585
P_10 1.040632 1.088266 1.079507 1.152184 1.103994 1.054656
P_10 1.030632 1.116318 0.922188 0.884958 0.819608 0.773230
P_10 0.598234 0.530679 0.430727 0.373912 0.368885 0.316864
P_10 0.340501 0.362830 0.435401 0.536417 0.581033 0.673366
P_10 0.773300 0.909752 0.969166 1.046827 1.137147 1.218786
P_10 1.212576 1.328423 1.148229 1.253347 1.221905 1.267040
P_10 1.027860 1.134679 1.093539 1.068238 1.084828 0.992851
P_10 0.999921 0.948793 1.048828 1.103293 0.979432 1.052441
P_10 1.072843 1.039732 1.114091 1.153749 1.089639 1.127556
P_10 1.059630 1.068674 0.895267 0.869250 0.831704 0.664396
P_10 0.637125 0.588693 0.490963 0.454583 0.412077 0.355970
P_10 0.369547 0.429418 0.458825 0.506614 0.625429 0.846521
P_10 0.962384 1.031776 1.183852 1.253750 1.405279 1.375099
P_10 1.517445 1.465091 1.324453 1.442860 1.414122 1.407898
P_10 1.320415 1.301287 1.128775 1.070808 1.131385 1.143758
P_10 1.040033 1.046867 0.989480 1.029035 1.118621 1.080423
P_10 1.088757 1.018743 1.039524 1.104197 1.079890 1.012909
P_10 0.904876 0.985791 0.939502 0.860794 0.822628 0.727140
P_10 0.694820 0.562993 0.575466 0.497039 0.470915 0.401550
P_10 0.423495 0.373503 0.413064 0.428257 0.483575 0.557581
P_10 0.602882 0.692411 0.812216 0.933075 1.003708 1.065760
P_10 1.097896 1.236414 1.208720 1.284716 1.255922 1.194457
P_10 1.274701 1.189199 1.270004 1.157396 1.166213 1.093715
P_10 1.075578 1.183345 1.095643 1.056361 1.011689 1.112665
P_10 1.068155 1.107029 1.057626 1.023010 0.928384 0.944933
P_10 0.953154 0.825736 0.824129 0.680176 0.691232 0.583851
P_10 0.591382 0.593712 0.514315 0.401534 0.420796 0.392912
P_10 0.409692 0.400729 0.429509 0.403639 0.434851 0.462413
P_10 0.510670 0.596483 0.562205 0.725609 0.778972 0.846983
P_10 0.923290 1.023709 1.107190 1.221584 1.189611 1.125645
P_10 1.252714 1.188147 1.161479 1.053912 0.982806 1.034710
P_10 1.003938 1.001711 0.879785 1.040777 1.006244 0.974043
P_10 0.974488 1.066981 1.066315 0.985528 1.068807 0.950759
P_10 0.969747 0.946945 0.884388 0.729710 0.708866 0.611178
P_10 0.542325 0.445428 0.443604 0.342198 0.354637 0.326861
P_10 0.326832 0.344274 0.410067 0.453053 0.556717 0.715985
P_10 0.758759 0.824954 0.918272 1.123717 1.157799 1.235563
P_10 1.376481 1.370135 1.351258 1.300738 1.418206 1.455713
P_10 1.403708 1.157907 1.125328 1.111063 1.079536 0.926779
P_10 0.948794 0.957755 0.936828 0.894544 0.994028 1.014462
P_10 1.081010 1.073647 1.088118 1.129825 1.041320 1.089980
P_10 1.067266 1.060317 0.993038 0.909482 0.792945 0.631499
P_10 0.619605 0.567994 0.435345 0.406216 0.362431 0.343480
P_10 0.355136 0.392428 0.425939 0.515091 0.562061 0.744824
P_10 0.796065 0.860343 0.960403 1.025074 1.211296 1.234885
P_10 1.280739 1.239974 1.361173 1.370011 1.284534 1.307054
P_10 1.217852 1.242661 1.167784 1.025715 1.106265 1.091562
P_10 1.036857 1.014524 1.040771 0.958929 1.120374 1.139454
P_10 1.139339 1.226074 1.030215 1.100647 1.149058 1.166187
P_10 1.058734 1.082019 0.899599 0.843215 0.757639 0.718283
P_10 0.571459 0.513709 0.443925 0.393998 0.363946 0.367227
P_10 0.353615 0.354963 0.428731 0.487711 0.662636 0.685097
P_10 0.808614 0.857686 1.090425 1.168385 1.146580 1.252024
P_10 1.284611 1.348503 1.372672 1.352873 1.269107 1.302005
P_10 1.311382 1.192642 1.198621 1.209268 1.096223 1.145610
P_10 1.068448 1.089163 1.091795 1.006152 1.060874 1.153474
P_10 1.018216 1.110726 1.118194 1.022592 1.184119 1.124230
P_10 1.008037 0.986554 0.921861 0.883574 0.799321 0.685239
P_10 0.628615 0.540549 0.456387 0.408551 0.374760 0.336944
P_10 0.372270 0.380805 0.460863 0.514077 0.597622 0.760923
P_10 0.767941 0.997910 0.995757 1.039782 1.143804 1.290768
P_10 1.301893 1.304871 1.318438 1.154813 1.366944 1.268161
P_10 1.190568 1.244722 1.188057 1.097382 1.047681 1.043113
P_10 0.970295 0.930640 1.049815 1.027998 1.089337 1.038984
P_10 1.115262 1.189177 1.145601 1.111393 1.165366 1.155098
P_10 1.079419 0.996149 1.035470 0.947786 0.828688 0.747162
P_10 0.638243 0.573928 0.537689 0.390513 0.387241 0.364523
P_10 0.394237 0.449944 0.495820 0.575768 0.676449 0.778187
P_10 0.882988 1.040445 1.167503 1.307971 1.336163 1.369087
P_10 1.559580 1.593405 1.674557 1.475702 1.486901 1.432038
P_10 1.326761 1.376079 1.173884 1.174674 1.086793 1.110325
P_10 1.127894 1.229904 1.107032 1.050545 1.036675 1.173360
P_10 1.089066 1.206878 1.072401 1.111577 1.086141 1.138557
P_10 1.024862 1.008122 0.883326 0.846355 0.831217 0.770174
P_10 0.656604 0.603140 0.547932 0.513980 0.459927 0.400951
P_10 0.426683 0.447273 0.398803 0.443073 0.497219 0.533232
P_10 0.655303 0.712360 0.906446 0.816171 1.114553 1.071042
P_10 1.083234 1.228790 1.122361 1.307186 1.236675 1.180782
P_10 1.248414 1.228225 1.209865 1.127577 1.198432 1.175388
P_10 1.105928 1.067108 1.224008 1.148580 1.033165 1.119970
P_10 1.044674 1.058616 1.065932 0.958623 1.032558 0.948783
P_10 0.917677 0.820403 0.804760 0.742979 0.671606 0.640622
P_10 0.574184 0.512256 0.539280 0.456999 0.457361 0.393792
P_10 0.425284 0.395630 0.381496 0.405905 0.420286 0.451616
P_10 0.492909 0.568190 0.648907 0.751582 0.783137 0.910726
P_10 0.977207 0.990667 1.106720 1.183968 1.151100 1.152249
P_10 1.139122 1.208174 1.132342 1.101575 1.098478 0.966692
P_10 0.998715 1.015517 0.978119 0.929640 1.053823 0.978630
P_10 0.987849 1.114415 1.000559 0.973982 1.006955 0.929381
P_10 0.965924 0.950077 0.850155 0.741597 0.735682 0.634795
P_10 0.510729 0.497980 0.436345 0.351368 0.352000 0.337009
P_10 0.343569 0.362165 0.369528 0.470071 0.600535 0.686155
P_10 0.728331 0.925688 0.879364 1.043811 1.189969 1.282890
P_10 1.366770 1.354757 1.435328 1.354338 1.360588 1.321270
P_10 1.404550 1.186867 1.241272 1.177282 1.129379 1.095722
P_10 1.029542 1.014681 0.982602 0.941950 1.077114 1.044808
P_10 1.005276 1.138610 1.071950 1.192358 1.126334 1.121858
P_10 1.091845 1.003819 0.989251 0.839182 0.778567 0.736267
P_10 0.616457 0.567753 0.469396 0.422619 0.421883 0.355839
P_10 0.370934 0.379575 0.455971 0.505373 0.533615 0.696278
P_10 0.753519 0.903554 1.090370 1.076344 1.137300 1.184845
P_10 1.304472 1.411671 1.374908 1.286924 1.417662 1.335062
P_10 1.296430 1.197904 1.171669 1.125580 1.186391 1.028098
P_10 1.027167 0.991552 0.961032 0.905918 1.125691 1.059136
P_10 1.092955 1.188232 1.223509 1.197715 1.123649 1.144006
P_10 1.129642 0.900898 0.948645 0.993656 0.788281 0.803834
P_10 0.629151 0.530281 0.441782 0.383272 0.339591 0.342246
P_10 0.358452 0.413060 0.441017 0.538347 0.592785 0.731386
P_10 0.844638 0.925153 1.118782 1.212335 1.178782 1.289507
P_10 1.371731 1.477478 1.331065 1.396944 1.326798 1.382935
P_10 1.267166 1.355696 1.221686 1.249093 1.144065 1.181009
P_10 1.078063 1.023799 1.014057 1.066571 0.988959 1.066040
P_10 1.137698 1.204062 1.111698 1.115613 1.152440 1.199184
P_10 1.066001 1.048470 0.984278 0.870937 0.783628 0.725426
P_10 0.657580 0.530984 0.447821 0.422790 0.352257 0.353692
P_10 0.346051 0.397282 0.458573 0.535166 0.653267 0.708082
P_10 0.825059 0.949731 0.990846 1.200236 1.097036 1.306743
P_10 1.271836 1.300053 1.383323 1.276485 1.314262 1.306270
P_10 1.354684 1.179646 1.131571 1.168370 1.081774 1.004111
P_10 1.083198 1.125904 0.935233 1.115196 0.988393 1.125544
P_10 1.149791 1.107819 1.221799 1.103708 1.111038 1.167425
P_10 1.074528 0.951884 1.071287 0.938066 0.925113 0.795380
P_10 0.713934 0.567077 0.512834 0.461783 0.426873 0.380502
P_10 0.377567 0.446905 0.470316 0.570556 0.663149 0.783862
P_10 0.890293 1.048366 1.168734 1.205314 1.541482 1.490845
P_10 1.499644 1.644535 1.650103 1.503093 1.517699 1.466701
P_10 1.478765 1.345727 1.181448 1.142466 1.256497 1.200679
P_10 1.151545 1.215827 1.114200 1.087467 1.135087 1.088465
P_10 1.170473 1.116892 1.132261 1.156512 1.132272 1.076102
P_10 1.098555 0.990347 0.955657 0.945603 0.822362 0.801742
P_10 0.778851 0.631409 0.580626 0.525750 0.476710 0.428650
P_10 0.444213 0.420786 0.438471 0.458330 0.549478 0.626111
P_10 0.605967 0.701277 0.817988 1.044063 1.065047 1.153505
P_10 1.225100 1.271655 1.324553 1.347609 1.315179 1.203871
P_10 1.320438 1.245047 1.298654 1.197515 1.143843 1.164756
P_10 1.210637 1.130903 1.120479 1.167043 1.121929 1.179883
P_10 1.152044 1.192774 1.186626 1.003891 1.071518 1.065345
P_10 0.985433 0.953742 0.884730 0.738225 0.730999 0.670315
P_10 0.701350 0.577874 0.505356 0.514720 0.463796 0.447486
P_10 0.407174 0.418140 0.390370 0.428648 0.449115 0.475367
P_10 0.524385 0.624365 0.675423 0.763385 0.919252 0.866824
P_10 1.012008 1.049310 1.209578 1.246501 1.030210 1.216476
P_10 1.249938 1.095820 1.107164 1.088460 1.150925 1.058626
P_10 1.150917 1.033482 1.010430 0.972276 1.018717 1.098993
P_10 1.018438 1.064013 1.069670 1.076723 1.081491 1.118616
P_10 1.089975 0.955636 0.841676 0.857988 0.724719 0.578262
P_10 0.588043 0.504308 0.399991 0.371394 0.371997 0.341132
P_10 0.330406 0.400840 0.472135 0.504376 0.542187 0.718902
P_10 0.803783 0.936782 1.043144 1.200482 1.216726 1.314679
P_10 1.415781 1.404068 1.531512 1.296131 1.397211 1.471100
P_10 1.503291 1.283746 1.203310 1.218601 1.092548 1.101649
P_10 1.040569 0.920779 0.964584 0.997689 0.957723 1.012799
P_10 1.090680 1.113715 1.296062 1.179349 1.107231 1.170026
P_10 1.122829 1.049643 0.992363 0.917124 0.904588 0.686379
P_10 0.623599 0.580431 0.439485 0.451314 0.375863 0.384307
P_10 0.381044 0.391494 0.453927 0.482519 0.603784 0.686888
P_10 0.809052 0.974905 1.031932 1.115553 1.119913 1.214372
P_10 1.443814 1.471136 1.310917 1.365244 1.230118 1.354495
P_10 1.394711 1.260706 1.168482 1.188032 1.134060 1.096194
P_10 1.047948 1.092463 1.007528 1.086137 1.083834 1.198078
P_10 1.191447 1.242193 1.300651 1.288607 1.146960 1.160237
P_10 1.154254 1.077407 1.080204 0.926574 0.826790 0.720856
P_10 0.630856 0.494758 0.463329 0.449221 0.388528 0.364859
P_10 0.352217 0.444623 0.525649 0.563731 0.672738 0.755055
P_10 0.867844 0.982668 1.055830 1.091911 1.372263 1.250864
P_10 1.395728 1.370074 1.494220 1.374821 1.313919 1.409494
P_10 1.231890 1.320340 1.292755 1.266172 1.213667 1.105615
P_10 1.172565 1.160251 1.027255 1.122203 0.970086 0.984641
P_10 1.116179 1.130831 1.159921 1.202425 1.236228 1.193871
P_10 1.095695 1.063780 1.010871 0.877132 0.812821 0.727952
P_10 0.643984 0.596516 0.517913 0.362100 0.372505 0.362486
P_10 0.360531 0.408121 0.454365 0.583181 0.615704 0.753563
P_10 0.802989 0.969062 1.143540 1.159414 1.282342 1.429517
P_10 1.278941 1.367564 1.332781 1.343627 1.331936 1.372723
P_10 1.351894 1.344611 1.171120 1.138967 1.036174 1.099333
P_10 1.064201 1.050893 1.015202 1.158899 1.106427 1.105202
P_10 1.069744 1.203943 1.175112 1.155117 1.161790 1.091539
P_10 1.157199 1.025369 1.105872 0.865705 0.833516 0.785251
P_10 0.707380 0.579065 0.479231 0.435573 0.404845 0.411627
P_10 0.394066 0.406463 0.506557 0.607920 0.739662 0.961734
P_10 0.942263 1.006438 1.133463 1.261003 1.371753 1.529208
P_10 1.605543 1.794517 1.479611 1.653701 1.601124 1.444033
P_10 1.505054 1.407316 1.257241 1.367192 1.171617 1.147818
P_10 1.105999 1.179204 1.144622 1.139965 1.153435 1.152925
P_10 1.100335 1.108715 1.234296 1.145473 1.223831 1.208481
P_10 1.129691 1.001494 0.979613 0.922369 0.838911 0.766795
P_10 0.697381 0.668844 0.527443 0.563103 0.486991 0.464256
P_10 0.442349 0.402064 0.433399 0.471832 0.520243 0.608551
P_10 0.675923 0.793911 0.902951 0.890646 1.071367 1.214077
P_10 1.280576 1.358729 1.338085 1.189582 1.321975 1.203781
P_10 1.335343 1.287818 1.373482 1.169904 1.317858 1.243841
P_10 1.143121 1.124208 1.219894 1.235656 1.074717 1.216811
P_10 1.051043 1.285247 1.060131 1.139796 0.922979 0.987523
P_10 0.911583 0.851770 0.864116 0.806184 0.789188 0.689993
P_10 0.667323 0.556966 0.491046 0.465225 0.490109 0.447772
P_10 0.442299 0.402943 0.403919 0.407222 0.432116 0.502583
P_10 0.570156 0.606798 0.706667 0.712274 0.880607 0.946808
P_10 0.998655 1.054624 1.068033 1.179371 1.271695 1.156284
P_10 1.257740 1.219203 1.138869 1.150091 1.204330 1.150692
P_10 1.165578 1.104802 1.004484 0.990108 1.066197 0.930295
P_10 1.074922 1.109799 1.111118 1.083142 1.112028 1.107960
P_10 0.994199 1.010287 0.997618 0.809342 0.830045 0.665816
P_10 0.555543 0.509039 0.465427 0.397687 0.352929 0.364938
P_10 0.360586 0.371288 0.466941 0.511746 0.633551 0.706893
P_10 0.834256 0.892971 1.092401 1.090678 1.266282 1.390528
P_10 1.325253 1.428050 1.401652 1.621122 1.574063 1.411355
P_10 1.408293 1.444223 1.230637 1.246578 1.114702 1.100433
P_10 0.938914 1.092677 1.076213 0.993663 0.991407 1.145363
P_10 1.054097 1.038145 1.170261 1.144061 1.268072 1.266642
P_10 1.167254 1.159824 1.013216 0.910667 0.850277 0.787865
P_10 0.617053 0.584869 0.493292 0.443300 0.400488 0.367922
P_10 0.382694 0.451351 0.483999 0.564882 0.618447 0.699533
P_10 0.857708 0.945470 1.002539 1.174130 1.351998 1.264527
P_10 1.452793 1.337893 1.503968 1.302397 1.280712 1.226269
P_10 1.254964 1.247087 1.345735 1.255882 1.221916 1.101206
P_10 1.135720 0.993311 0.992530 1.087235 1.108766 1.093858
P_10 1.209782 1.186776 1.152992 1.239069 1.205841 1.098377
P_10 1.090544 1.074853 1.027311 0.964704 0.865977 0.707777
P_10 0.693281 0.572558 0.488408 0.403029 0.390765 0.363844
P_10 0.373393 0.418269 0.518867 0.565089 0.694650 0.794149
P_10 0.881714 0.928848 1.059658 1.245694 1.268020 1.238188
P_10 1.479652 1.388770 1.447408 1.383178 1.438849 1.475072
P_10 1.437293 1.408068 1.293913 1.310894 1.281766 1.202439
P_10 1.246172 1.183824 1.110521 1.132578 1.169952 1.235899
P_10 1.102794 1.159980 1.088134 1.176844 1.142523 1.282518
P_10 1.099873 1.133252 0.954439 0.928056 0.883486 0.756611
P_10 0.658815 0.636302 0.477038 0.418393 0.402693 0.394943
P_10 0.406372 0.414705 0.504836 0.565139 0.705985 0.697427
P_10 0.857600 1.043348 1.159177 1.156943 1.340095 1.355720
P_10 1.447433 1.288575 1.391023 1.348338 1.346205 1.312200
P_10 1.330348 1.168998 1.257610 1.196598 1.121418 1.100567
P_10 1.117412 1.188547 1.180245 1.070683 1.125028 1.195404
P_10 1.172175 1.197323 1.264279 1.255371 1.210558 1.197854
P_10 1.151875 1.166021 1.017514 0.954313 0.881942 0.805136
P_10 0.708761 0.581442 0.471989 0.432701 0.415943 0.407159
P_10 0.422018 0.424786 0.550095 0.605572 0.717578 0.785977
P_10 0.977263 1.099253 1.232273 1.407564 1.464920 1.550783
P_10 1.652495 1.667386 1.782602 1.665527 1.468743 1.437396
P_10 1.446833 1.448574 1.338848 1.320135 1.320952 1.302071
P_10 1.158273 1.184809 1.131953 1.122462 1.071512 1.216856
P_10 1.165302 1.201171 1.096177 1.237463 1.143192 1.089530
P_10 1.108385 1.110860 1.001476 0.918695 0.822958 0.822822
P_10 0.716397 0.663223 0.567255 0.554750 0.521009 0.499451
P_10 0.409687 0.450740 0.449682 0.486126 0.524170 0.664487
P_10 0.741172 0.841227 0.888331 0.999341 1.068325 1.160205
P_10 1.250069 1.403595 1.383990 1.435002 1.407678 1.401331
P_10 1.364300 1.345683 1.214169 1.273433 1.281848 1.284757
P_10 1.249449 1.190320 1.241316 1.267276 1.398903 1.177430
P_10 1.126786 1.143260 1.122270 1.212476 1.112426 1.072860
P_10 0.932073 0.863557 0.837232 0.819192 0.806937 0.716312
P_10 0.634114 0.558405 0.515492 0.472766 0.544203 0.460935
P_10 0.396516 0.414014 0.420690 0.472027 0.515410 0.491291
P_10 0.554169 0.622588 0.709215 0.740490 0.811137 1.005621
P_10 1.004658 1.140712 1.184331 1.269246 1.229853 1.211075
P_10 1.236231 1.230592 1.153766 1.267815 1.149945 1.143770
P_10 1.101213 1.177837 1.031577 0.979556 1.043805 1.118076
P_10 1.110876 1.042129 1.143426 1.133151 1.137320 1.034019
P_10 1.012894 1.007530 1.017135 0.878821 0.795655 0.748298
P_10 0.596488 0.529405 0.502852 0.417488 0.417489 0.361438
P_10 0.396874 0.392400 0.463724 0.506071 0.582722 0.710317
P_10 0.835999 0.920904 0.925638 1.174758 1.228911 1.412335
P_10 1.449231 1.512904 1.610557 1.570912 1.628321 1.434610
P_10 1.373409 1.281865 1.281345 1.252031 1.149925 1.112337
P_10 1.050123 0.978316 1.036567 1.065319 1.013333 1.090989
P_10 1.042558 1.188700 1.058983 1.152196 1.232285 1.298849
P_10 1.151738 1.154100 0.945933 0.998714 0.793122 0.751595
P_10 0.681328 0.616801 0.487189 0.426460 0.418158 0.393747
P_10 0.395671 0.391660 0.492486 0.552912 0.674191 0.730139
P_10 0.883177 0.915504 1.176664 1.149848 1.218855 1.253414
P_10 1.444918 1.437821 1.484947 1.561735 1.442577 1.365350
P_10 1.430240 1.391809 1.294517 1.141952 1.191589 1.235245
P_10 1.138023 1.038475 1.054155 1.116618 1.011312 1.034308
P_10 1.227493 1.140625 1.175175 1.325695 1.267335 1.273989
P_10 1.332772 1.141042 1.098979 0.928016 0.872535 0.734963
P_10 0.630541 0.575206 0.480668 0.429684 0.395340 0.398107
P_10 0.400466 0.470081 0.497044 0.565503 0.603714 0.767391
P_10 0.962537 0.979633 1.140500 1.214948 1.308438 1.415733
P_10 1.375073 1.364915 1.464122 1.469966 1.475103 1.505782
P_10 1.294438 1.455053 1.403234 1.212015 1.275262 1.246520
P_10 1.165904 1.195241 1.114073 1.234384 1.254248 1.205126
P_10 1.193911 1.284442 1.163001 1.267073 1.218873 1.146029
P_10 1.115276 1.156340 0.991174 0.970955 0.883883 0.795982
P_10 0.669093 0.553918 0.495594 0.416454 0.398215 0.370447
P_10 0.413135 0.440016 0.452566 0.594014 0.629594 0.715631
P_10 0.983888 1.058593 1.026999 1.366122 1.227002 1.459964
P_10 1.408679 1.428929 1.519318 1.435068 1.413139 1.379682
P_10 1.307383 1.281958 1.407760 1.167125 1.212250 1.154947
P_10 1.155249 1.094971 1.012407 1.177739 1.109158 1.100979
P_10 1.173757 1.228316 1.221422 1.223436 1.063074 1.288881
P_10 1.151814 1.180403 1.071871 0.952146 0.863259 0.748811
P_10 0.698596 0.659347 0.499872 0.478672 0.417304 0.388497
P_10 0.399787 0.461712 0.529146 0.646840 0.681087 0.850430
P_10 1.009794 1.210064 1.298056 1.424005 1.613155 1.548068
P_10 1.742090 1.569807 1.792286 1.721461 1.576931 1.619297
P_10 1.467555 1.398114 1.382852 1.302090 1.236193 1.120746
P_10 1.265180 1.163334 1.232931 1.280572 1.208221 1.206255
P_10 1.170266 1.178475 1.262413 1.200656 1.021075 1.140631
P_10 1.043392 1.130428 1.035267 0.972383 0.854506 0.772435
P_10 0.818798 0.716855 0.591680 0.541872 0.500836 0.470272